download/pglib-opf-master/api/pglib_opf_case1354_pegase__api.m
%%%%%%%%%%%%%%%%%%%%%%%%%%%%%%%%%%%%%%%%%%%%%%%%%%%%%%%%%%%%%%%%%%%%%%%%%%%
%%%%                                                                  %%%%%
%%%%    IEEE PES Power Grid Library - Optimal Power Flow - v19.05     %%%%%
%%%%          (https://github.com/power-grid-lib/pglib-opf)           %%%%%
%%%%             Benchmark Group - Active Power Increase              %%%%%
%%%%                         08 - May - 2019                          %%%%%
%%%%                                                                  %%%%%
%%%%%%%%%%%%%%%%%%%%%%%%%%%%%%%%%%%%%%%%%%%%%%%%%%%%%%%%%%%%%%%%%%%%%%%%%%%
function mpc = pglib_opf_case1354_pegase__api
mpc.version = '2';
mpc.baseMVA = 100.0;

%% bus data
%	bus_i	type	Pd	Qd	Gs	Bs	area	Vm	Va	baseKV	zone	Vmax	Vmin
mpc.bus = [
	3	 1	 167.89	 48.80	 0.0	 4.69	 0	    1.00000	    0.00000	 220.0	 5	    1.10000	    0.90000;
	4	 1	 190.58	 23.40	 0.0	 2.1	 0	    1.00000	    0.00000	 220.0	 5	    1.10000	    0.90000;
	10	 1	 148.99	 24.70	 0.0	 12.44	 0	    1.00000	    0.00000	 220.0	 5	    1.10000	    0.90000;
	21	 1	 179.23	 39.30	 0.0	 30.71	 0	    1.00000	    0.00000	 220.0	 5	    1.10000	    0.90000;
	22	 1	 0.0	 -0.0	 0.0	 0.85	 0	    1.00000	    0.00000	 220.0	 5	    1.10000	    0.90000;
	26	 1	 186.01	 54.80	 0.0	 110.54	 0	    1.00000	    0.00000	 380.0	 5	    1.10000	    0.90000;
	29	 1	 170.00	 49.40	 0.0	 27.65	 0	    1.00000	    0.00000	 380.0	 5	    1.10000	    0.90000;
	44	 1	 -0.0	 0.0	 0.0	 7.27	 0	    1.00000	    0.00000	 220.0	 5	    1.10000	    0.90000;
	53	 1	 54.09	 16.10	 0.0	 7.14	 0	    1.00000	    0.00000	 220.0	 5	    1.10000	    0.90000;
	58	 1	 0.0	 0.0	 0.0	 2.31	 0	    1.00000	    0.00000	 380.0	 5	    1.10000	    0.90000;
	59	 1	 132.53	 20.70	 0.0	 3.31	 0	    1.00000	    0.00000	 220.0	 5	    1.10000	    0.90000;
	90	 1	 403.88	 115.39	 0.0	 3.95	 0	    1.00000	    0.00000	 220.0	 5	    1.10000	    0.90000;
	96	 1	 -8.40	 28.66	 0.0	 3.49	 0	    1.00000	    0.00000	 220.0	 5	    1.10000	    0.90000;
	113	 1	 -0.0	 -0.0	 0.0	 6.532711	 0	    1.00000	    0.00000	 380.0	 5	    1.10000	    0.90000;
	115	 1	 0.0	 -0.0	 0.0	 4.21	 0	    1.00000	    0.00000	 220.0	 5	    1.10000	    0.90000;
	118	 1	 704.53	 -35.33	 0.0	 13.102834	 0	    1.00000	    0.00000	 380.0	 5	    1.10000	    0.90000;
	124	 2	 0.0	 0.0	 0.0	 0.0	 0	    1.00000	    0.00000	 220.0	 5	    1.10000	    0.90000;
	128	 1	 26.38	 12.70	 0.0	 0.52	 0	    1.00000	    0.00000	 220.0	 5	    1.10000	    0.90000;
	145	 1	 42.63	 5.60	 0.0	 7.64	 0	    1.00000	    0.00000	 220.0	 5	    1.10000	    0.90000;
	148	 1	 35.96	 12.00	 0.0	 6.1	 0	    1.00000	    0.00000	 220.0	 5	    1.10000	    0.90000;
	150	 2	 0.0	 0.0	 0.0	 0.0	 0	    1.00000	    0.00000	 220.0	 5	    1.10000	    0.90000;
	163	 1	 164.29	 32.73	 0.0	 8.34	 0	    1.00000	    0.00000	 220.0	 5	    1.10000	    0.90000;
	171	 1	 112.07	 13.20	 0.0	 5.24	 0	    1.00000	    0.00000	 220.0	 5	    1.10000	    0.90000;
	174	 1	 370.50	 -17.00	 0.0	 9.91	 0	    1.00000	    0.00000	 220.0	 5	    1.10000	    0.90000;
	184	 1	 -0.0	 -0.0	 0.0	 2.42	 0	    1.00000	    0.00000	 220.0	 5	    1.10000	    0.90000;
	188	 1	 40.96	 13.90	 0.0	 3.3	 0	    1.00000	    0.00000	 220.0	 5	    1.10000	    0.90000;
	195	 1	 81.32	 21.55	 0.0	 8.52	 0	    1.00000	    0.00000	 220.0	 5	    1.10000	    0.90000;
	196	 1	 0.0	 -0.0	 0.0	 12.48	 0	    1.00000	    0.00000	 220.0	 5	    1.10000	    0.90000;
	198	 1	 44.18	 11.80	 0.0	 1.44	 0	    1.00000	    0.00000	 220.0	 5	    1.10000	    0.90000;
	207	 1	 357.99	 84.40	 0.0	 1.34	 0	    1.00000	    0.00000	 220.0	 5	    1.10000	    0.90000;
	216	 1	 173.00	 54.70	 0.0	 2.21	 0	    1.00000	    0.00000	 220.0	 5	    1.10000	    0.90000;
	217	 1	 116.97	 0.10	 0.0	 7.36	 0	    1.00000	    0.00000	 220.0	 5	    1.10000	    0.90000;
	218	 1	 77.64	 15.12	 0.0	 2.23	 0	    1.00000	    0.00000	 220.0	 5	    1.10000	    0.90000;
	221	 2	 0.0	 0.0	 0.0	 0.0	 0	    1.00000	    0.00000	 380.0	 5	    1.10000	    0.90000;
	225	 1	 0.0	 0.0	 0.0	 1.15	 0	    1.00000	    0.00000	 220.0	 5	    1.10000	    0.90000;
	280	 1	 132.98	 29.60	 0.0	 5.34	 0	    1.00000	    0.00000	 220.0	 5	    1.10000	    0.90000;
	283	 1	 30.39	 11.90	 0.0	 1.17	 0	    1.00000	    0.00000	 220.0	 5	    1.10000	    0.90000;
	292	 1	 15.37	 1.40	 0.0	 0.7	 0	    1.00000	    0.00000	 220.0	 5	    1.10000	    0.90000;
	305	 1	 114.52	 12.00	 0.0	 0.63	 0	    1.00000	    0.00000	 220.0	 5	    1.10000	    0.90000;
	306	 1	 -0.0	 0.0	 0.0	 4.76	 0	    1.00000	    0.00000	 220.0	 5	    1.10000	    0.90000;
	314	 1	 181.34	 46.30	 0.0	 10.6	 0	    1.00000	    0.00000	 220.0	 5	    1.10000	    0.90000;
	333	 1	 583.16	 43.00	 0.0	 6.85	 0	    1.00000	    0.00000	 220.0	 5	    1.10000	    0.90000;
	338	 2	 0.0	 0.0	 0.0	 0.0	 0	    1.00000	    0.00000	 220.0	 5	    1.10000	    0.90000;
	346	 1	 219.59	 48.30	 0.0	 0.71	 0	    1.00000	    0.00000	 220.0	 5	    1.10000	    0.90000;
	350	 1	 122.75	 26.20	 0.0	 5.62	 0	    1.00000	    0.00000	 220.0	 5	    1.10000	    0.90000;
	352	 2	 0.0	 0.0	 0.0	 0.0	 0	    1.00000	    0.00000	 380.0	 5	    1.10000	    0.90000;
	367	 1	 65.17	 -51.50	 0.0	 4.85	 0	    1.00000	    0.00000	 220.0	 5	    1.10000	    0.90000;
	401	 1	 62.82	 36.29	 0.0	 3.08	 0	    1.00000	    0.00000	 220.0	 5	    1.10000	    0.90000;
	408	 1	 143.54	 7.40	 0.0	 0.04	 0	    1.00000	    0.00000	 220.0	 5	    1.10000	    0.90000;
	410	 1	 190.00	 50.38	 0.0	 6.44	 0	    1.00000	    0.00000	 220.0	 5	    1.10000	    0.90000;
	413	 2	 0.0	 0.0	 0.0	 0.0	 0	    1.00000	    0.00000	 220.0	 5	    1.10000	    0.90000;
	416	 1	 78.58	 13.50	 0.0	 6.96	 0	    1.00000	    0.00000	 220.0	 5	    1.10000	    0.90000;
	426	 1	 136.87	 6.50	 0.0	 3.25	 0	    1.00000	    0.00000	 220.0	 5	    1.10000	    0.90000;
	432	 1	 -0.0	 -0.0	 0.0	 68.517663	 0	    1.00000	    0.00000	 380.0	 5	    1.10000	    0.90000;
	444	 1	 0.0	 -0.0	 0.0	 2.45	 0	    1.00000	    0.00000	 220.0	 5	    1.10000	    0.90000;
	449	 1	 0.0	 0.0	 0.0	 29.42	 0	    1.00000	    0.00000	 380.0	 5	    1.10000	    0.90000;
	453	 2	 0.0	 0.0	 0.0	 0.0	 0	    1.00000	    0.00000	 380.0	 5	    1.10000	    0.90000;
	455	 1	 305.00	 5.66	 0.0	 13.24	 0	    1.00000	    0.00000	 220.0	 5	    1.10000	    0.90000;
	490	 1	 22.81	 4.00	 0.0	 2.77	 0	    1.00000	    0.00000	 220.0	 5	    1.10000	    0.90000;
	500	 1	 160.55	 35.50	 0.0	 7.66	 0	    1.00000	    0.00000	 220.0	 5	    1.10000	    0.90000;
	502	 1	 -0.0	 0.0	 0.0	 1.96	 0	    1.00000	    0.00000	 220.0	 5	    1.10000	    0.90000;
	506	 1	 -0.0	 0.0	 0.0	 0.4	 0	    1.00000	    0.00000	 380.0	 5	    1.10000	    0.90000;
	513	 1	 63.89	 17.10	 0.0	 1.61	 0	    1.00000	    0.00000	 220.0	 5	    1.10000	    0.90000;
	516	 2	 0.0	 0.0	 0.0	 0.0	 0	    1.00000	    0.00000	 220.0	 5	    1.10000	    0.90000;
	520	 1	 131.75	 20.40	 0.0	 2.57	 0	    1.00000	    0.00000	 220.0	 5	    1.10000	    0.90000;
	549	 1	 0.0	 -0.0	 0.0	 5.15	 0	    1.00000	    0.00000	 220.0	 5	    1.10000	    0.90000;
	554	 1	 0.0	 -0.0	 0.0	 1.97	 0	    1.00000	    0.00000	 220.0	 5	    1.10000	    0.90000;
	556	 1	 18.37	 9.00	 0.0	 1.17	 0	    1.00000	    0.00000	 220.0	 5	    1.10000	    0.90000;
	561	 1	 0.0	 -0.0	 0.0	 0.32	 0	    1.00000	    0.00000	 220.0	 5	    1.10000	    0.90000;
	564	 2	 0.0	 0.0	 0.0	 0.0	 0	    1.00000	    0.00000	 220.0	 5	    1.10000	    0.90000;
	575	 1	 0.0	 -0.0	 0.0	 0.67	 0	    1.00000	    0.00000	 220.0	 5	    1.10000	    0.90000;
	583	 2	 0.0	 0.0	 0.0	 0.0	 0	    1.00000	    0.00000	 220.0	 5	    1.10000	    0.90000;
	594	 1	 75.13	 17.00	 0.0	 5.75	 0	    1.00000	    0.00000	 220.0	 5	    1.10000	    0.90000;
	601	 1	 156.32	 42.60	 0.0	 5.71	 0	    1.00000	    0.00000	 220.0	 5	    1.10000	    0.90000;
	604	 1	 36.96	 4.40	 0.0	 24.54	 0	    1.00000	    0.00000	 380.0	 5	    1.10000	    0.90000;
	608	 1	 167.78	 10.40	 0.0	 4.77	 0	    1.00000	    0.00000	 220.0	 5	    1.10000	    0.90000;
	609	 1	 -0.0	 -0.0	 0.0	 5.67	 0	    1.00000	    0.00000	 220.0	 5	    1.10000	    0.90000;
	615	 2	 0.0	 0.0	 0.0	 0.0	 0	    1.00000	    0.00000	 220.0	 5	    1.10000	    0.90000;
	616	 2	 0.0	 0.0	 0.0	 0.0	 0	    1.00000	    0.00000	 220.0	 5	    1.10000	    0.90000;
	619	 1	 81.03	 14.40	 0.0	 2.96	 0	    1.00000	    0.00000	 220.0	 5	    1.10000	    0.90000;
	639	 2	 0.0	 0.0	 0.0	 0.0	 0	    1.00000	    0.00000	 220.0	 5	    1.10000	    0.90000;
	641	 1	 50.39	 18.50	 0.0	 0.74	 0	    1.00000	    0.00000	 220.0	 5	    1.10000	    0.90000;
	658	 1	 287.30	 66.70	 0.0	 5.87	 0	    1.00000	    0.00000	 220.0	 5	    1.10000	    0.90000;
	661	 1	 -0.0	 -0.0	 0.0	 0.6	 0	    1.00000	    0.00000	 380.0	 5	    1.10000	    0.90000;
	666	 1	 -5.61	 -2.79	 0.0	 150.93	 0	    1.00000	    0.00000	 380.0	 5	    1.10000	    0.90000;
	678	 1	 258.06	 89.80	 0.0	 0.09	 0	    1.00000	    0.00000	 220.0	 5	    1.10000	    0.90000;
	682	 2	 0.0	 0.0	 0.0	 0.0	 0	    1.00000	    0.00000	 220.0	 5	    1.10000	    0.90000;
	687	 1	 -0.0	 0.0	 0.0	 5.6	 0	    1.00000	    0.00000	 220.0	 5	    1.10000	    0.90000;
	707	 1	 93.38	 21.20	 0.0	 5.36	 0	    1.00000	    0.00000	 220.0	 5	    1.10000	    0.90000;
	718	 1	 150.22	 41.00	 0.0	 5.31	 0	    1.00000	    0.00000	 220.0	 5	    1.10000	    0.90000;
	720	 1	 -0.0	 -0.0	 0.0	 23.554121	 0	    1.00000	    0.00000	 380.0	 5	    1.10000	    0.90000;
	726	 1	 445.07	 189.90	 0.0	 0.53	 0	    1.00000	    0.00000	 220.0	 5	    1.10000	    0.90000;
	742	 1	 0.0	 -0.0	 0.0	 2.83	 0	    1.00000	    0.00000	 220.0	 5	    1.10000	    0.90000;
	747	 1	 77.36	 16.00	 0.0	 3.03	 0	    1.00000	    0.00000	 220.0	 5	    1.10000	    0.90000;
	749	 2	 0.0	 0.0	 0.0	 0.0	 0	    1.00000	    0.00000	 220.0	 5	    1.10000	    0.90000;
	750	 1	 -0.0	 -0.0	 0.0	 18.63	 0	    1.00000	    0.00000	 220.0	 5	    1.10000	    0.90000;
	757	 2	 0.0	 0.0	 0.0	 0.0	 0	    1.00000	    0.00000	 380.0	 5	    1.10000	    0.90000;
	766	 1	 -0.0	 0.0	 0.0	 7.85	 0	    1.00000	    0.00000	 220.0	 5	    1.10000	    0.90000;
	769	 1	 169.63	 40.00	 0.0	 6.12	 0	    1.00000	    0.00000	 220.0	 5	    1.10000	    0.90000;
	772	 1	 382.36	 141.90	 0.0	 5.55	 0	    1.00000	    0.00000	 220.0	 5	    1.10000	    0.90000;
	776	 2	 0.0	 0.0	 0.0	 0.0	 0	    1.00000	    0.00000	 220.0	 5	    1.10000	    0.90000;
	778	 2	 0.0	 0.0	 0.0	 0.0	 0	    1.00000	    0.00000	 220.0	 5	    1.10000	    0.90000;
	789	 1	 -0.0	 -0.0	 0.0	 6.63	 0	    1.00000	    0.00000	 220.0	 5	    1.10000	    0.90000;
	795	 2	 0.0	 0.0	 0.0	 0.0	 0	    1.00000	    0.00000	 220.0	 5	    1.10000	    0.90000;
	800	 1	 56.21	 18.00	 0.0	 0.11	 0	    1.00000	    0.00000	 220.0	 5	    1.10000	    0.90000;
	803	 2	 0.0	 0.0	 0.0	 0.0	 0	    1.00000	    0.00000	 220.0	 5	    1.10000	    0.90000;
	804	 1	 -0.0	 -0.0	 0.0	 7.26	 0	    1.00000	    0.00000	 220.0	 5	    1.10000	    0.90000;
	805	 1	 138.42	 29.60	 0.0	 15.4	 0	    1.00000	    0.00000	 220.0	 5	    1.10000	    0.90000;
	809	 1	 0.0	 -0.0	 0.0	 58.088687	 0	    1.00000	    0.00000	 380.0	 5	    1.10000	    0.90000;
	819	 1	 0.0	 -0.0	 0.0	 0.22	 0	    1.00000	    0.00000	 220.0	 5	    1.10000	    0.90000;
	823	 2	 0.0	 0.0	 0.0	 0.0	 0	    1.00000	    0.00000	 380.0	 5	    1.10000	    0.90000;
	839	 1	 -0.0	 -0.0	 0.0	 8.17514	 0	    1.00000	    0.00000	 380.0	 5	    1.10000	    0.90000;
	851	 2	 0.0	 0.0	 0.0	 0.0	 0	    1.00000	    0.00000	 220.0	 5	    1.10000	    0.90000;
	858	 2	 0.0	 0.0	 0.0	 0.0	 0	    1.00000	    0.00000	 380.0	 5	    1.10000	    0.90000;
	870	 1	 122.30	 3.40	 0.0	 11.95	 0	    1.00000	    0.00000	 220.0	 5	    1.10000	    0.90000;
	871	 1	 108.89	 -21.76	 0.0	 3.72	 0	    1.00000	    0.00000	 220.0	 5	    1.10000	    0.90000;
	883	 1	 214.03	 78.30	 0.0	 6.65	 0	    1.00000	    0.00000	 220.0	 5	    1.10000	    0.90000;
	891	 2	 0.0	 0.0	 0.0	 0.0	 0	    1.00000	    0.00000	 380.0	 5	    1.10000	    0.90000;
	892	 1	 -0.0	 -0.0	 0.0	 9.1	 0	    1.00000	    0.00000	 220.0	 5	    1.10000	    0.90000;
	900	 1	 0.0	 0.0	 0.0	 0.15	 0	    1.00000	    0.00000	 220.0	 5	    1.10000	    0.90000;
	903	 1	 91.94	 20.10	 0.0	 1.36	 0	    1.00000	    0.00000	 220.0	 5	    1.10000	    0.90000;
	905	 1	 631.71	 -54.16	 0.0	 7.534129	 0	    1.00000	    0.00000	 380.0	 5	    1.10000	    0.90000;
	907	 1	 -0.0	 -0.0	 0.0	 0.05	 0	    1.00000	    0.00000	 220.0	 5	    1.10000	    0.90000;
	908	 1	 125.90	 -0.50	 0.0	 0.21	 0	    1.00000	    0.00000	 220.0	 5	    1.10000	    0.90000;
	920	 1	 38.29	 8.50	 0.0	 1.11	 0	    1.00000	    0.00000	 220.0	 5	    1.10000	    0.90000;
	923	 1	 69.01	 14.70	 0.0	 4.84	 0	    1.00000	    0.00000	 220.0	 5	    1.10000	    0.90000;
	933	 1	 -0.0	 0.0	 0.0	 22.75	 0	    1.00000	    0.00000	 220.0	 5	    1.10000	    0.90000;
	935	 1	 -0.0	 0.0	 0.0	 9.46	 0	    1.00000	    0.00000	 220.0	 5	    1.10000	    0.90000;
	953	 1	 108.70	 -12.15	 0.0	 37.11	 0	    1.00000	    0.00000	 380.0	 5	    1.10000	    0.90000;
	954	 1	 73.68	 13.60	 0.0	 0.67	 0	    1.00000	    0.00000	 220.0	 5	    1.10000	    0.90000;
	960	 1	 -0.0	 -0.0	 0.0	 108.728602	 0	    1.00000	    0.00000	 380.0	 5	    1.10000	    0.90000;
	964	 1	 98.40	 16.50	 0.0	 146.44	 0	    1.00000	    0.00000	 380.0	 5	    1.10000	    0.90000;
	972	 2	 0.0	 0.0	 0.0	 0.0	 0	    1.00000	    0.00000	 380.0	 5	    1.30000	    0.70000;
	980	 1	 16.36	 4.60	 0.0	 7.88	 0	    1.00000	    0.00000	 220.0	 5	    1.10000	    0.90000;
	1001	 2	 0.0	 0.0	 0.0	 0.0	 0	    1.00000	    0.00000	 220.0	 5	    1.10000	    0.90000;
	1002	 2	 0.0	 0.0	 0.0	 0.0	 0	    1.00000	    0.00000	 220.0	 5	    1.10000	    0.90000;
	1005	 1	 0.0	 0.0	 0.0	 0.81	 0	    1.00000	    0.00000	 220.0	 5	    1.10000	    0.90000;
	1015	 1	 44.55	 0.00	 0.0	 4.78	 0	    1.00000	    0.00000	 220.0	 5	    1.10000	    0.90000;
	1026	 1	 223.92	 53.00	 0.0	 9.67	 0	    1.00000	    0.00000	 220.0	 5	    1.10000	    0.90000;
	1027	 1	 -5.91	 -2.33	 0.0	 30.393595	 0	    1.00000	    0.00000	 380.0	 5	    1.10000	    0.90000;
	1033	 1	 29.27	 5.30	 0.0	 4.31	 0	    1.00000	    0.00000	 220.0	 5	    1.10000	    0.90000;
	1035	 1	 425.28	 57.90	 0.0	 8.16	 0	    1.00000	    0.00000	 220.0	 5	    1.10000	    0.90000;
	1039	 1	 34.64	 -0.00	 0.0	 0.91	 0	    1.00000	    0.00000	 220.0	 5	    1.10000	    0.90000;
	1040	 1	 35.51	 8.80	 0.0	 3.79	 0	    1.00000	    0.00000	 220.0	 5	    1.10000	    0.90000;
	1043	 2	 0.0	 0.0	 0.0	 0.0	 0	    1.00000	    0.00000	 380.0	 5	    1.10000	    0.90000;
	1051	 1	 -0.0	 0.0	 0.0	 3.79	 0	    1.00000	    0.00000	 220.0	 5	    1.10000	    0.90000;
	1077	 1	 -0.0	 0.0	 0.0	 0.1	 0	    1.00000	    0.00000	 220.0	 5	    1.10000	    0.90000;
	1078	 1	 -0.0	 -0.0	 0.0	 4.74	 0	    1.00000	    0.00000	 220.0	 5	    1.10000	    0.90000;
	1081	 1	 308.94	 58.95	 0.0	 182.880644	 0	    1.00000	    0.00000	 380.0	 5	    1.10000	    0.90000;
	1083	 2	 0.0	 0.0	 0.0	 0.0	 0	    1.00000	    0.00000	 220.0	 5	    1.10000	    0.90000;
	1090	 1	 62.33	 18.70	 0.0	 4.24	 0	    1.00000	    0.00000	 220.0	 5	    1.10000	    0.90000;
	1093	 2	 0.0	 0.0	 0.0	 0.0	 0	    1.00000	    0.00000	 380.0	 5	    1.10000	    0.90000;
	1096	 1	 0.0	 -0.0	 0.0	 0.16	 0	    1.00000	    0.00000	 220.0	 5	    1.10000	    0.90000;
	1100	 2	 0.0	 0.0	 0.0	 0.0	 0	    1.00000	    0.00000	 220.0	 5	    1.10000	    0.90000;
	1101	 1	 -0.0	 -0.0	 0.0	 2.05	 0	    1.00000	    0.00000	 220.0	 5	    1.10000	    0.90000;
	1102	 2	 0.0	 0.0	 0.0	 0.0	 0	    1.00000	    0.00000	 220.0	 5	    1.10000	    0.90000;
	1105	 1	 33.17	 7.30	 0.0	 6.49	 0	    1.00000	    0.00000	 220.0	 5	    1.10000	    0.90000;
	1111	 1	 0.0	 0.0	 0.0	 1.1	 0	    1.00000	    0.00000	 220.0	 5	    1.10000	    0.90000;
	1129	 1	 211.77	 55.03	 0.0	 6.7	 0	    1.00000	    0.00000	 220.0	 5	    1.10000	    0.90000;
	1136	 1	 18.03	 2.00	 0.0	 0.71	 0	    1.00000	    0.00000	 220.0	 5	    1.10000	    0.90000;
	1137	 1	 -0.0	 -0.0	 0.0	 0.05	 0	    1.00000	    0.00000	 220.0	 5	    1.10000	    0.90000;
	1146	 1	 32.84	 -0.00	 0.0	 1.41	 0	    1.00000	    0.00000	 220.0	 5	    1.10000	    0.90000;
	1151	 1	 -0.0	 -0.0	 0.0	 18.82	 0	    1.00000	    0.00000	 220.0	 5	    1.10000	    0.90000;
	1153	 1	 13.80	 3.90	 0.0	 2.23	 0	    1.00000	    0.00000	 220.0	 5	    1.10000	    0.90000;
	1156	 1	 73.01	 24.00	 0.0	 9.95	 0	    1.00000	    0.00000	 220.0	 5	    1.10000	    0.90000;
	1159	 1	 124.97	 13.00	 0.0	 3.99	 0	    1.00000	    0.00000	 220.0	 5	    1.10000	    0.90000;
	1172	 1	 -0.0	 -0.0	 0.0	 2.3	 0	    1.00000	    0.00000	 220.0	 5	    1.10000	    0.90000;
	1179	 1	 96.29	 23.40	 0.0	 0.39	 0	    1.00000	    0.00000	 220.0	 5	    1.10000	    0.90000;
	1183	 1	 199.40	 -19.90	 0.0	 6.68	 0	    1.00000	    0.00000	 220.0	 5	    1.10000	    0.90000;
	1187	 1	 75.13	 21.20	 0.0	 5.71	 0	    1.00000	    0.00000	 220.0	 5	    1.10000	    0.90000;
	1188	 1	 34.39	 6.60	 0.0	 9.09	 0	    1.00000	    0.00000	 220.0	 5	    1.10000	    0.90000;
	1194	 1	 144.09	 13.30	 0.0	 13.98	 0	    1.00000	    0.00000	 380.0	 5	    1.10000	    0.90000;
	1198	 1	 0.0	 0.0	 0.0	 30.637696	 0	    1.00000	    0.00000	 380.0	 5	    1.10000	    0.90000;
	1201	 1	 126.86	 23.50	 0.0	 1.08	 0	    1.00000	    0.00000	 220.0	 5	    1.10000	    0.90000;
	1216	 1	 0.0	 0.0	 0.0	 4.93	 0	    1.00000	    0.00000	 220.0	 5	    1.10000	    0.90000;
	1233	 1	 0.0	 -0.0	 0.0	 1.72	 0	    1.00000	    0.00000	 220.0	 5	    1.10000	    0.90000;
	1234	 1	 79.81	 17.90	 0.0	 1.96	 0	    1.00000	    0.00000	 220.0	 5	    1.10000	    0.90000;
	1237	 2	 0.0	 0.0	 0.0	 0.0	 0	    1.00000	    0.00000	 380.0	 5	    1.30000	    0.70000;
	1248	 1	 0.0	 0.0	 0.0	 1.17	 0	    1.00000	    0.00000	 220.0	 5	    1.10000	    0.90000;
	1249	 1	 387.95	 26.47	 0.0	 9.36	 0	    1.00000	    0.00000	 380.0	 5	    1.10000	    0.90000;
	1251	 2	 0.0	 0.0	 0.0	 0.0	 0	    1.00000	    0.00000	 380.0	 5	    1.10000	    0.90000;
	1262	 1	 -0.0	 0.0	 0.0	 10.73	 0	    1.00000	    0.00000	 220.0	 5	    1.10000	    0.90000;
	1265	 1	 173.00	 -21.30	 0.0	 5.93	 0	    1.00000	    0.00000	 220.0	 5	    1.10000	    0.90000;
	1275	 1	 58.33	 2.90	 0.0	 0.35	 0	    1.00000	    0.00000	 220.0	 5	    1.10000	    0.90000;
	1295	 2	 0.0	 0.0	 0.0	 0.0	 0	    1.00000	    0.00000	 220.0	 5	    1.10000	    0.90000;
	1301	 1	 532.57	 99.20	 0.0	 10.68	 0	    1.00000	    0.00000	 220.0	 5	    1.10000	    0.90000;
	1305	 1	 -0.0	 -0.0	 0.0	 4.34	 0	    1.00000	    0.00000	 220.0	 5	    1.10000	    0.90000;
	1311	 1	 42.18	 15.20	 0.0	 35.31	 0	    1.00000	    0.00000	 380.0	 5	    1.10000	    0.90000;
	1326	 1	 0.0	 0.0	 0.0	 0.98	 0	    1.00000	    0.00000	 220.0	 5	    1.10000	    0.90000;
	1334	 1	 0.0	 0.0	 0.0	 0.59	 0	    1.00000	    0.00000	 220.0	 5	    1.10000	    0.90000;
	1341	 2	 0.0	 0.0	 0.0	 0.0	 0	    1.00000	    0.00000	 220.0	 5	    1.10000	    0.90000;
	1343	 1	 -0.0	 -0.0	 0.0	 58.3	 0	    1.00000	    0.00000	 380.0	 5	    1.10000	    0.90000;
	1354	 2	 0.0	 0.0	 0.0	 0.0	 0	    1.00000	    0.00000	 220.0	 5	    1.10000	    0.90000;
	1355	 1	 -3.29	 -1.32	 0.0	 190.704588	 0	    1.00000	    0.00000	 380.0	 5	    1.10000	    0.90000;
	1364	 1	 45.42	 14.50	 0.0	 0.59	 0	    1.00000	    0.00000	 220.0	 5	    1.10000	    0.90000;
	1380	 1	 161.44	 21.40	 0.0	 1.09	 0	    1.00000	    0.00000	 220.0	 5	    1.10000	    0.90000;
	1394	 1	 34.39	 7.60	 0.0	 4.69	 0	    1.00000	    0.00000	 220.0	 5	    1.10000	    0.90000;
	1397	 1	 0.0	 -0.0	 0.0	 2.14	 0	    1.00000	    0.00000	 220.0	 5	    1.10000	    0.90000;
	1398	 1	 218.70	 44.20	 0.0	 0.1	 0	    1.00000	    0.00000	 220.0	 5	    1.10000	    0.90000;
	1401	 1	 13.24	 2.90	 0.0	 5.27	 0	    1.00000	    0.00000	 220.0	 5	    1.10000	    0.90000;
...
];

%% generator data
%	bus	Pg	Qg	Qmax	Qmin	Vg	mBase	status	Pmax	Pmin
mpc.gen = [
	124	 290.8325	 116.16	 440.32	 -208.0	 1.0	 100.0	 1	 415	 166.665; % NG
	150	 107.0	 0.0	 980.4	 -980.4	 1.0	 100.0	 1	 214	 0.0; % COW
	221	 -103.59	 59.31	 183.92	 -65.3	 1.0	 100.0	 1	 0	 -207.18; % SYNC
	338	 37.0	 9.27	 55.54	 -37.0	 1.0	 100.0	 1	 74	 0.0; % NG
	352	 740.6675	 176.175	 926.35	 -574.0	 1.0	 100.0	 1	 1148	 333.335; % COW
	413	 119.5	 2.06	 124.12	 -120.0	 1.0	 100.0	 1	 239	 0.0; % NG
	453	 77.0	 90.115	 257.23	 -77.0	 1.0	 100.0	 1	 154	 0.0; % COW
	516	 310.0	 0.895	 261.79	 -260.0	 1.0	 100.0	 1	 520	 100.0; % COW
	564	 586.555	 0.0	 621.0	 -621.0	 1.0	 100.0	 1	 1242	 -68.89; % NG
	583	 -180.0	 -0.06	 17.88	 -18.0	 1.0	 100.0	 1	 0	 -360.0; % SYNC
	615	 55.0	 0.0	 1146.0	 -1146.0	 1.0	 100.0	 1	 110	 0.0; % PEL
	616	 242.5	 7.45	 217.9	 -203.0	 1.0	 100.0	 1	 405	 80.0; % NG
	639	 271.2	 0.0	 302.0	 -302.0	 1.0	 100.0	 1	 604	 -61.6; % NG
	682	 85.0	 0.0	 85.0	 -85.0	 1.0	 100.0	 1	 170	 0.0; % NG
	749	 230.0	 0.0	 230.0	 -230.0	 1.0	 100.0	 1	 460	 0.0; % COW
	757	 400.5	 0.0	 2331.6	 -2331.6	 1.0	 100.0	 1	 801	 0.0; % COW
	776	 131.735	 0.0	 206.0	 -206.0	 1.0	 100.0	 1	 412	 -148.53; % COW
	778	 74.0	 0.0	 2382.0	 -2382.0	 1.0	 100.0	 1	 148	 0.0; % NG
	795	 240.5	 0.0	 13654.8	 -13654.8	 1.0	 100.0	 1	 481	 0.0; % NG
	803	 -34.465	 24.245	 74.03	 -25.54	 1.0	 100.0	 1	 50	 -118.93; % COW
	823	 652.1675	 220.34	 926.68	 -486.0	 1.0	 100.0	 1	 971	 333.335; % NUC
	851	 120.5	 0.0	 122.4	 -122.4	 1.0	 100.0	 1	 241	 0.0; % COW
	858	 493.8325	 0.0	 862.8	 -862.8	 1.0	 100.0	 1	 821	 166.665; % COW
	891	 1093.0	 102.205	 1097.41	 -893.0	 1.0	 100.0	 1	 1786	 400.0; % NG
	972	 802.6675	 149.365	 934.73	 -636.0	 1.0	 100.0	 1	 1272	 333.335; % COW
	1001	 848.5	 0.0	 849.0	 -849.0	 1.0	 100.0	 1	 1697	 0.0; % COW
	1002	 597.0	 0.0	 597.0	 -597.0	 1.0	 100.0	 1	 1194	 0.0; % NG
	1043	 466.0	 0.0	 89973.6	 -89973.6	 1.0	 100.0	 1	 782	 150.0; % COW
	1083	 90.0	 0.0	 90.0	 -90.0	 1.0	 100.0	 1	 180	 0.0; % NG
	1093	 661.0	 0.0	 16606.8	 -16606.8	 1.0	 100.0	 1	 1122	 200.0; % COW
	1100	 46.0	 0.0	 46.0	 -46.0	 1.0	 100.0	 1	 92	 0.0; % NG
	1102	 -82.77	 -0.775	 38.05	 -39.6	 1.0	 100.0	 1	 0	 -165.54; % SYNC
	1237	 684.1675	 194.305	 906.61	 -518.0	 1.0	 100.0	 1	 1035	 333.335; % COW
	1251	 532.0	 59.345	 550.69	 -432.0	 1.0	 100.0	 1	 864	 200.0; % NG
	1295	 -72.735	 12.02	 36.92	 -12.88	 1.0	 100.0	 1	 20	 -165.47; % NG
	1341	 126.5	 0.0	 127.0	 -127.0	 1.0	 100.0	 1	 253	 0.0; % NG
	1354	 -164.335	 4.04	 38.08	 -30.0	 1.0	 100.0	 1	 0	 -328.67; % SYNC
	1422	 -6.335	 0.0	 61.0	 -61.0	 1.0	 100.0	 1	 122	 -134.67; % NG
	1436	 106.5	 0.0	 14774.4	 -14774.4	 1.0	 100.0	 1	 213	 0.0; % NG
	1478	 173.5	 0.0	 174.0	 -174.0	 1.0	 100.0	 1	 347	 0.0; % COW
	1604	 40.0	 0.0	 40.0	 -40.0	 1.0	 100.0	 1	 80	 0.0; % NG
	1642	 108.5	 0.0	 280.8	 -280.8	 1.0	 100.0	 1	 217	 0.0; % NG
	1680	 602.6675	 246.445	 928.89	 -436.0	 1.0	 100.0	 1	 872	 333.335; % NG
	1708	 459.8325	 31.185	 439.37	 -377.0	 1.0	 100.0	 1	 753	 166.665; % PEL
	1721	 121.0	 0.0	 960.0	 -960.0	 1.0	 100.0	 1	 242	 0.0; % NG
	1754	 289.0	 0.0	 700.8	 -700.8	 1.0	 100.0	 1	 578	 0.0; % PEL
	1794	 1466.1675	 0.0	 1300.0	 -1300.0	 1.0	 100.0	 1	 2599	 333.335; % COW
	1808	 117.1	 0.0	 118.0	 -118.0	 1.0	 100.0	 1	 235	 -0.8; % NG
	1851	 107.5	 0.0	 14598.0	 -14598.0	 1.0	 100.0	 1	 215	 0.0; % NG
	1852	 136.8	 0.0	 298.0	 -298.0	 1.0	 100.0	 1	 596	 -322.4; % NG
	1888	 542.695	 0.0	 465.0	 -465.0	 1.0	 100.0	 1	 929	 156.39; % COW
	1914	 99.3375	 0.0	 391.2	 -391.2	 1.0	 100.0	 1	 179	 19.675; % NG
	1959	 29.5	 0.0	 1072.8	 -1072.8	 1.0	 100.0	 1	 59	 0.0; % NG
	2035	 709.8325	 0.0	 627.0	 -627.0	 1.0	 100.0	 1	 1253	 166.665; % COW
	2050	 563.1675	 282.6	 962.2	 -397.0	 1.0	 100.0	 1	 793	 333.335; % COW
	2085	 106.5	 0.0	 107.0	 -107.0	 1.0	 100.0	 1	 213	 0.0; % NG
	2177	 93.135	 0.0	 174.0	 -174.0	 1.0	 100.0	 1	 348	 -161.73; % COW
	2197	 174.975	 0.0	 211.0	 -211.0	 1.0	 100.0	 1	 421	 -71.05; % NG
	2276	 23.0	 0.0	 174.0	 -174.0	 1.0	 100.0	 1	 46	 0.0; % NG
	2291	 144.0	 0.0	 144.0	 -144.0	 1.0	 100.0	 1	 288	 0.0; % NG
	2359	 125.5	 0.0	 186.0	 -186.0	 1.0	 100.0	 1	 251	 0.0; % NG
	2421	 -213.6	 1.895	 37.39	 -33.6	 1.0	 100.0	 1	 0	 -427.2; % SYNC
	2425	 170.5	 0.0	 238.0	 -238.0	 1.0	 100.0	 1	 475	 -134.0; % NG
	2426	 51.7	 0.0	 406.8	 -406.8	 1.0	 100.0	 1	 161	 -57.6; % NG
	2446	 651.1675	 218.31	 921.62	 -485.0	 1.0	 100.0	 1	 969	 333.335; % COW
	2468	 37.5	 0.01	 38.02	 -38.0	 1.0	 100.0	 1	 75	 0.0; % NG
	2481	 73.5	 0.0	 74.0	 -74.0	 1.0	 100.0	 1	 147	 0.0; % NG
	2489	 159.5	 1.2	 162.4	 -160.0	 1.0	 100.0	 1	 319	 0.0; % NG
	2550	 110.0	 0.0	 222.0	 -222.0	 1.0	 100.0	 1	 220	 0.0; % COW
	2600	 96.0	 0.0	 516.0	 -516.0	 1.0	 100.0	 1	 192	 0.0; % NG
	2627	 679.6675	 204.26	 921.52	 -513.0	 1.0	 100.0	 1	 1026	 333.335; % NG
	2653	 389.5	 0.0	 390.0	 -390.0	 1.0	 100.0	 1	 779	 0.0; % NG
	2719	 119.5	 0.0	 17295.6	 -17295.6	 1.0	 100.0	 1	 239	 0.0; % NG
	2786	 811.1675	 144.905	 934.81	 -645.0	 1.0	 100.0	 1	 1289	 333.335; % COW
	2797	 -63.4	 0.0	 140.4	 -140.4	 1.0	 100.0	 1	 0	 -126.8; % SYNC
	2799	 66.0	 5.955	 77.91	 -66.0	 1.0	 100.0	 1	 132	 0.0; % NG
	2816	 1131.1675	 0.0	 965.0	 -965.0	 1.0	 100.0	 1	 1929	 333.335; % COW
	2841	 26.5	 14.49	 55.98	 -27.0	 1.0	 100.0	 1	 53	 0.0; % NG
	2842	 51.5	 0.0	 52.0	 -52.0	 1.0	 100.0	 1	 103	 0.0; % NG
	2872	 74.0	 0.0	 74.0	 -74.0	 1.0	 100.0	 1	 148	 0.0; % NG
	2878	 59.0	 2.12	 72.95	 -68.71	 1.0	 100.0	 1	 118	 0.0; % NG
	2886	 149.5	 0.0	 150.0	 -150.0	 1.0	 100.0	 1	 299	 0.0; % COW
	2902	 76.5	 0.0	 77.0	 -77.0	 1.0	 100.0	 1	 153	 0.0; % NG
	2930	 131.5	 0.0	 12367.2	 -12367.2	 1.0	 100.0	 1	 263	 0.0; % NG
	2934	 99.0	 0.0	 4316.4	 -4316.4	 1.0	 100.0	 1	 198	 0.0; % NG
	2985	 97.5	 25.895	 184.46	 -132.67	 1.0	 100.0	 1	 195	 0.0; % NG
	3018	 63.5	 12.805	 89.61	 -64.0	 1.0	 100.0	 1	 127	 0.0; % NG
	3028	 506.3325	 9.425	 441.85	 -423.0	 1.0	 100.0	 1	 846	 166.665; % COW
	3114	 166.0	 0.0	 199.2	 -199.2	 1.0	 100.0	 1	 332	 0.0; % COW
	3133	 50.0	 31.985	 113.97	 -50.0	 1.0	 100.0	 1	 100	 0.0; % NG
	3134	 -46.365	 8.725	 70.25	 -52.8	 1.0	 100.0	 1	 89	 -181.73; % NG
	3183	 70.5	 0.0	 71.0	 -71.0	 1.0	 100.0	 1	 141	 0.0; % NG
	3205	 117.5	 -14.995	 243.61	 -273.6	 1.0	 100.0	 1	 235	 0.0; % NG
	3218	 -65.6	 0.0	 106.8	 -106.8	 1.0	 100.0	 1	 12	 -143.2; % COW
	3240	 17.8	 5.43	 62.23	 -51.37	 1.0	 100.0	 1	 92	 -56.4; % NG
	3306	 528.8325	 0.0	 446.0	 -446.0	 1.0	 100.0	 1	 891	 166.665; % COW
	3324	 175.85	 0.0	 194.0	 -194.0	 1.0	 100.0	 1	 387	 -35.3; % NG
	3346	 598.5	 0.0	 946.8	 -946.8	 1.0	 100.0	 1	 1197	 0.0; % NG
	3353	 71.0	 0.0	 71.0	 -71.0	 1.0	 100.0	 1	 142	 0.0; % COW
	3364	 81.5	 0.0	 82.0	 -82.0	 1.0	 100.0	 1	 163	 0.0; % NG
	3390	 300.5	 0.0	 301.0	 -301.0	 1.0	 100.0	 1	 601	 0.0; % NG
	3422	 53.5	 2.095	 58.19	 -54.0	 1.0	 100.0	 1	 107	 0.0; % NG
	3436	 577.5	 36.485	 550.97	 -478.0	 1.0	 100.0	 1	 955	 200.0; % NUC
	3492	 -247.2	 16.335	 53.75	 -21.08	 1.0	 100.0	 1	 0	 -494.4; % SYNC
	3513	 825.0	 0.0	 80065.2	 -80065.2	 1.0	 100.0	 1	 1500	 150.0; % COW
	3565	 130.0	 0.0	 130.0	 -130.0	 1.0	 100.0	 1	 260	 0.0; % NG
	3580	 187.0	 37.35	 261.7	 -187.0	 1.0	 100.0	 1	 374	 0.0; % NG
	3611	 -2.1	 0.0	 82.0	 -82.0	 1.0	 100.0	 1	 163	 -167.2; % NG
	3656	 9.535	 0.0	 556.8	 -556.8	 1.0	 100.0	 1	 54	 -34.93; % NG
	3661	 330.3325	 97.02	 441.04	 -247.0	 1.0	 100.0	 1	 494	 166.665; % COW
	3698	 442.61	 0.0	 1971.6	 -1971.6	 1.0	 100.0	 1	 902	 -16.78; % NG
	3741	 759.0	 0.0	 659.0	 -659.0	 1.0	 100.0	 1	 1318	 200.0; % COW
	3809	 401.8325	 0.0	 344.0	 -344.0	 1.0	 100.0	 1	 687	 116.665; % COW
	3825	 435.0	 0.0	 14680.8	 -14680.8	 1.0	 100.0	 1	 720	 150.0; % NG
	3869	 440.8325	 41.345	 440.69	 -358.0	 1.0	 100.0	 1	 715	 166.665; % COW
	3876	 135.265	 0.0	 152.0	 -152.0	 1.0	 100.0	 1	 304	 -33.47; % NG
	3916	 371.815	 0.0	 386.0	 -386.0	 1.0	 100.0	 1	 772	 -28.37; % NG
	3951	 114.935	 0.0	 133.0	 -133.0	 1.0	 100.0	 1	 266	 -36.13; % NG
	3971	 -89.665	 0.0	 4461.6	 -4461.6	 1.0	 100.0	 1	 0	 -179.33; % SYNC
	4024	 147.0	 0.0	 147.0	 -147.0	 1.0	 100.0	 1	 294	 0.0; % NG
	4056	 -35.765	 11.025	 38.05	 -16.0	 1.0	 100.0	 1	 31	 -102.53; % NG
	4084	 256.5	 0.0	 4570.8	 -4570.8	 1.0	 100.0	 1	 513	 0.0; % COW
	4118	 210.0	 0.0	 210.0	 -210.0	 1.0	 100.0	 1	 420	 0.0; % NG
	4125	 341.0	 0.0	 390.0	 -390.0	 1.0	 100.0	 1	 682	 0.0; % PEL
	4128	 92.5	 0.0	 93.0	 -93.0	 1.0	 100.0	 1	 185	 0.0; % NG
	4231	 1215.8325	 0.0	 99999.0	 -99999.0	 1.0	 100.0	 1	 1765	 666.665; % NUC
	4331	 72.5	 0.0	 74.4	 -74.4	 1.0	 100.0	 1	 145	 0.0; % PEL
	4395	 -36.065	 0.0	 50.0	 -50.0	 1.0	 100.0	 1	 100	 -172.13; % NG
	4419	 775.3325	 0.0	 692.0	 -692.0	 1.0	 100.0	 1	 1384	 166.665; % COW
	4480	 749.3325	 0.0	 666.0	 -666.0	 1.0	 100.0	 1	 1332	 166.665; % COW
	4482	 59.0	 0.0	 59.0	 -59.0	 1.0	 100.0	 1	 118	 0.0; % NG
	4506	 5.465	 0.0	 132.0	 -132.0	 1.0	 100.0	 1	 240	 -229.07; % NG
	4566	 340.745	 0.0	 361.0	 -361.0	 1.0	 100.0	 1	 722	 -40.51; % NG
	4624	 134.0	 0.0	 134.0	 -134.0	 1.0	 100.0	 1	 268	 0.0; % NG
	4661	 -52.6	 6.685	 19.14	 -5.77	 1.0	 100.0	 1	 0	 -105.2; % SYNC
	4701	 69.5	 6.055	 98.4	 -86.29	 1.0	 100.0	 1	 139	 0.0; % NG
	4783	 537.3325	 0.0	 454.0	 -454.0	 1.0	 100.0	 1	 908	 166.665; % COW
	4816	 440.115	 0.0	 458.0	 -458.0	 1.0	 100.0	 1	 915	 -34.77; % NG
	4819	 419.3325	 52.345	 440.69	 -336.0	 1.0	 100.0	 1	 672	 166.665; % COW
	4823	 66.0	 0.0	 66.0	 -66.0	 1.0	 100.0	 1	 132	 0.0; % NG
	4850	 99.5	 0.0	 100.0	 -100.0	 1.0	 100.0	 1	 199	 0.0; % NG
	4880	 50.135	 0.0	 145.2	 -145.2	 1.0	 100.0	 1	 154	 -53.73; % NG
	4918	 374.0	 0.0	 374.0	 -374.0	 1.0	 100.0	 1	 748	 0.0; % NG
	4952	 90.115	 0.0	 99.0	 -99.0	 1.0	 100.0	 1	 197	 -16.77; % NG
	5004	 47.0	 2.16	 74.73	 -70.41	 1.0	 100.0	 1	 94	 0.0; % NG
	5019	 152.5	 0.0	 16675.2	 -16675.2	 1.0	 100.0	 1	 305	 0.0; % NG
	5051	 76.0	 0.0	 76.0	 -76.0	 1.0	 100.0	 1	 152	 0.0; % NG
	5067	 70.5	 0.0	 566.4	 -566.4	 1.0	 100.0	 1	 141	 0.0; % NG
	5110	 59.495	 0.0	 95.0	 -95.0	 1.0	 100.0	 1	 189	 -70.01; % NG
	5120	 71.5	 0.0	 72.0	 -72.0	 1.0	 100.0	 1	 143	 0.0; % COW
	5144	 770.6675	 56.23	 882.86	 -770.4	 1.0	 100.0	 1	 1208	 333.335; % NUC
	5237	 118.0	 0.0	 118.0	 -118.0	 1.0	 100.0	 1	 236	 0.0; % NG
	5278	 701.0	 0.0	 44686.8	 -44686.8	 1.0	 100.0	 1	 1402	 0.0; % COW
	5340	 293.0	 0.0	 30789.6	 -30789.6	 1.0	 100.0	 1	 798	 -212.0; % COW
	5365	 36.0	 0.0	 164.4	 -164.4	 1.0	 100.0	 1	 72	 0.0; % PEL
	5379	 893.6675	 99.735	 926.47	 -727.0	 1.0	 100.0	 1	 1454	 333.335; % COW
	5395	 -263.865	 -2.77	 58.06	 -63.6	 1.0	 100.0	 1	 0	 -527.73; % SYNC
	5461	 242.5	 0.0	 243.0	 -243.0	 1.0	 100.0	 1	 485	 0.0; % NG
	5481	 798.1675	 0.0	 49508.4	 -49508.4	 1.0	 100.0	 1	 1263	 333.335; % COW
	5482	 76.5	 12.16	 101.32	 -77.0	 1.0	 100.0	 1	 153	 0.0; % NG
	5486	 471.8325	 26.02	 441.04	 -389.0	 1.0	 100.0	 1	 777	 166.665; % COW
	5488	 45.235	 0.0	 110.0	 -110.0	 1.0	 100.0	 1	 219	 -128.53; % NG
	5490	 1138.8325	 479.68	 1765.36	 -806.0	 1.0	 100.0	 1	 1611	 666.665; % COW
	5533	 115.0	 0.0	 115.0	 -115.0	 1.0	 100.0	 1	 230	 0.0; % NG
	5546	 94.0	 0.0	 174.0	 -174.0	 1.0	 100.0	 1	 188	 0.0; % NG
	5564	 253.0	 0.0	 253.0	 -253.0	 1.0	 100.0	 1	 506	 0.0; % NG
	5658	 249.0	 0.0	 249.0	 -249.0	 1.0	 100.0	 1	 498	 0.0; % NG
	5664	 73.0	 0.0	 73.0	 -73.0	 1.0	 100.0	 1	 146	 0.0; % NG
	5709	 679.0	 0.0	 579.0	 -579.0	 1.0	 100.0	 1	 1158	 200.0; % COW
	5781	 840.5	 44.145	 779.29	 -691.0	 1.0	 100.0	 1	 1381	 300.0; % COW
	5814	 404.6675	 0.0	 368.0	 -368.0	 1.0	 100.0	 1	 736	 73.335; % COW
	5856	 244.0	 5.065	 214.13	 -204.0	 1.0	 100.0	 1	 408	 80.0; % COW
	5881	 86.0	 0.0	 86.0	 -86.0	 1.0	 100.0	 1	 172	 0.0; % NG
	5940	 224.065	 0.0	 274.0	 -274.0	 1.0	 100.0	 1	 548	 -99.87; % NG
	5971	 564.6675	 268.27	 934.54	 -398.0	 1.0	 100.0	 1	 796	 333.335; % COW
	5983	 -4.835	 0.0	 64.0	 -64.0	 1.0	 100.0	 1	 127	 -136.67; % NG
	5994	 -57.2	 -0.285	 60.51	 -61.08	 1.0	 100.0	 1	 2	 -116.4; % NG
	6036	 374.0	 45.7	 390.4	 -299.0	 1.0	 100.0	 1	 598	 150.0; % COW
	6153	 200.02	 -6.085	 249.65	 -261.82	 1.0	 100.0	 1	 384	 16.04; % NG
	6168	 100.5	 0.0	 101.0	 -101.0	 1.0	 100.0	 1	 201	 0.0; % NG
	6291	 283.5	 0.0	 284.0	 -284.0	 1.0	 100.0	 1	 567	 0.0; % NG
	6331	 90.5	 0.0	 91.0	 -91.0	 1.0	 100.0	 1	 181	 0.0; % NG
	6332	 29.0	 33.78	 96.56	 -29.0	 1.0	 100.0	 1	 58	 0.0; % NG
	6351	 108.0	 0.0	 108.0	 -108.0	 1.0	 100.0	 1	 216	 0.0; % NG
	6368	 -24.365	 0.0	 172.8	 -172.8	 1.0	 100.0	 1	 145	 -193.73; % NG
	6376	 99.965	 14.825	 148.65	 -119.0	 1.0	 100.0	 1	 237	 -37.07; % NG
	6429	 630.5	 0.0	 631.0	 -631.0	 1.0	 100.0	 1	 1261	 0.0; % NG
	6474	 953.8325	 0.0	 871.0	 -871.0	 1.0	 100.0	 1	 1741	 166.665; % COW
	6516	 311.5	 0.0	 312.0	 -312.0	 1.0	 100.0	 1	 623	 0.0; % NG
	6552	 -84.635	 0.0	 246.0	 -246.0	 1.0	 100.0	 1	 103	 -272.27; % NG
	6734	 424.5	 0.0	 425.0	 -425.0	 1.0	 100.0	 1	 849	 0.0; % NUC
	6807	 181.0	 0.0	 181.0	 -181.0	 1.0	 100.0	 1	 362	 0.0; % NG
	6816	 100.5	 0.0	 101.0	 -101.0	 1.0	 100.0	 1	 201	 0.0; % NG
	6820	 104.5	 0.0	 2140.8	 -2140.8	 1.0	 100.0	 1	 209	 0.0; % NG
	6831	 85.165	 0.0	 124.0	 -124.0	 1.0	 100.0	 1	 247	 -76.67; % NG
	6845	 502.0	 0.0	 27549.6	 -27549.6	 1.0	 100.0	 1	 1004	 0.0; % PEL
	6852	 -229.935	 6.11	 18.56	 -6.34	 1.0	 100.0	 1	 0	 -459.87; % SYNC
	6857	 1183.3325	 507.915	 1865.83	 -850.0	 1.0	 100.0	 1	 1700	 666.665; % COW
	6888	 143.6675	 33.655	 189.31	 -122.0	 1.0	 100.0	 1	 243	 44.335; % NG
	6947	 162.0	 0.0	 1204.8	 -1204.8	 1.0	 100.0	 1	 324	 0.0; % NG
...
];

%% generator cost data
%	2	startup	shutdown	n	c(n-1)	...	c0
mpc.gencost = [
	2	 0.0	 0.0	 3	   0.000000	  10.258323	   0.000000; % NG
	2	 0.0	 0.0	 3	   0.000000	  35.739304	   0.000000; % COW
	2	 0.0	 0.0	 3	   0.000000	  25.382856	   0.000000; % SYNC
	2	 0.0	 0.0	 3	   0.000000	  22.570530	   0.000000; % NG
	2	 0.0	 0.0	 3	   0.000000	  24.410748	   0.000000; % COW
	2	 0.0	 0.0	 3	   0.000000	  37.397266	   0.000000; % NG
	2	 0.0	 0.0	 3	   0.000000	  14.602967	   0.000000; % COW
	2	 0.0	 0.0	 3	   0.000000	   6.171706	   0.000000; % COW
	2	 0.0	 0.0	 3	   0.000000	  26.392883	   0.000000; % NG
	2	 0.0	 0.0	 3	   0.000000	  29.720369	   0.000000; % SYNC
	2	 0.0	 0.0	 3	   0.000000	  35.601645	   0.000000; % PEL
	2	 0.0	 0.0	 3	   0.000000	  19.829521	   0.000000; % NG
	2	 0.0	 0.0	 3	   0.000000	  15.010680	   0.000000; % NG
	2	 0.0	 0.0	 3	   0.000000	   9.860522	   0.000000; % NG
	2	 0.0	 0.0	 3	   0.000000	  11.144193	   0.000000; % COW
	2	 0.0	 0.0	 3	   0.000000	   0.348478	   0.000000; % COW
	2	 0.0	 0.0	 3	   0.000000	  45.480340	   0.000000; % COW
	2	 0.0	 0.0	 3	   0.000000	  48.260283	   0.000000; % NG
	2	 0.0	 0.0	 3	   0.000000	  28.185912	   0.000000; % NG
	2	 0.0	 0.0	 3	   0.000000	  32.876654	   0.000000; % COW
	2	 0.0	 0.0	 3	   0.000000	  29.050011	   0.000000; % NUC
	2	 0.0	 0.0	 3	   0.000000	  17.693424	   0.000000; % COW
	2	 0.0	 0.0	 3	   0.000000	  28.179452	   0.000000; % COW
	2	 0.0	 0.0	 3	   0.000000	  16.782950	   0.000000; % NG
	2	 0.0	 0.0	 3	   0.000000	  34.077711	   0.000000; % COW
	2	 0.0	 0.0	 3	   0.000000	  25.254765	   0.000000; % COW
	2	 0.0	 0.0	 3	   0.000000	  25.888316	   0.000000; % NG
	2	 0.0	 0.0	 3	   0.000000	  38.064806	   0.000000; % COW
	2	 0.0	 0.0	 3	   0.000000	  35.093256	   0.000000; % NG
	2	 0.0	 0.0	 3	   0.000000	  33.895058	   0.000000; % COW
	2	 0.0	 0.0	 3	   0.000000	  42.531078	   0.000000; % NG
	2	 0.0	 0.0	 3	   0.000000	  44.703485	   0.000000; % SYNC
	2	 0.0	 0.0	 3	   0.000000	  19.144125	   0.000000; % COW
	2	 0.0	 0.0	 3	   0.000000	  39.146988	   0.000000; % NG
	2	 0.0	 0.0	 3	   0.000000	  32.283038	   0.000000; % NG
	2	 0.0	 0.0	 3	   0.000000	  33.961897	   0.000000; % NG
	2	 0.0	 0.0	 3	   0.000000	  24.001968	   0.000000; % SYNC
	2	 0.0	 0.0	 3	   0.000000	  26.922445	   0.000000; % NG
	2	 0.0	 0.0	 3	   0.000000	  28.934071	   0.000000; % NG
	2	 0.0	 0.0	 3	   0.000000	  29.194991	   0.000000; % COW
	2	 0.0	 0.0	 3	   0.000000	  39.793039	   0.000000; % NG
	2	 0.0	 0.0	 3	   0.000000	  43.399752	   0.000000; % NG
	2	 0.0	 0.0	 3	   0.000000	  20.054935	   0.000000; % NG
	2	 0.0	 0.0	 3	   0.000000	  18.252906	   0.000000; % PEL
	2	 0.0	 0.0	 3	   0.000000	  41.981874	   0.000000; % NG
	2	 0.0	 0.0	 3	   0.000000	  42.982040	   0.000000; % PEL
	2	 0.0	 0.0	 3	   0.000000	  16.220225	   0.000000; % COW
	2	 0.0	 0.0	 3	   0.000000	  21.265424	   0.000000; % NG
	2	 0.0	 0.0	 3	   0.000000	  17.662994	   0.000000; % NG
	2	 0.0	 0.0	 3	   0.000000	  15.838148	   0.000000; % NG
	2	 0.0	 0.0	 3	   0.000000	   6.883722	   0.000000; % COW
	2	 0.0	 0.0	 3	   0.000000	 118.076690	   0.000000; % NG
	2	 0.0	 0.0	 3	   0.000000	  19.828960	   0.000000; % NG
	2	 0.0	 0.0	 3	   0.000000	  18.889404	   0.000000; % COW
	2	 0.0	 0.0	 3	   0.000000	  32.470152	   0.000000; % COW
	2	 0.0	 0.0	 3	   0.000000	  26.491829	   0.000000; % NG
	2	 0.0	 0.0	 3	   0.000000	  24.981434	   0.000000; % COW
	2	 0.0	 0.0	 3	   0.000000	  38.427501	   0.000000; % NG
	2	 0.0	 0.0	 3	   0.000000	  38.894704	   0.000000; % NG
	2	 0.0	 0.0	 3	   0.000000	  34.810352	   0.000000; % NG
	2	 0.0	 0.0	 3	   0.000000	  32.089221	   0.000000; % NG
	2	 0.0	 0.0	 3	   0.000000	  24.960517	   0.000000; % SYNC
	2	 0.0	 0.0	 3	   0.000000	  40.587389	   0.000000; % NG
	2	 0.0	 0.0	 3	   0.000000	  36.445820	   0.000000; % NG
	2	 0.0	 0.0	 3	   0.000000	   6.803769	   0.000000; % COW
	2	 0.0	 0.0	 3	   0.000000	  27.474887	   0.000000; % NG
	2	 0.0	 0.0	 3	   0.000000	  28.188143	   0.000000; % NG
	2	 0.0	 0.0	 3	   0.000000	  27.672537	   0.000000; % NG
	2	 0.0	 0.0	 3	   0.000000	  37.476158	   0.000000; % COW
	2	 0.0	 0.0	 3	   0.000000	  38.324360	   0.000000; % NG
	2	 0.0	 0.0	 3	   0.000000	  29.361646	   0.000000; % NG
	2	 0.0	 0.0	 3	   0.000000	  46.894604	   0.000000; % NG
	2	 0.0	 0.0	 3	   0.000000	  33.066585	   0.000000; % NG
	2	 0.0	 0.0	 3	   0.000000	  10.656581	   0.000000; % COW
	2	 0.0	 0.0	 3	   0.000000	  15.138451	   0.000000; % SYNC
	2	 0.0	 0.0	 3	   0.000000	  34.209845	   0.000000; % NG
	2	 0.0	 0.0	 3	   0.000000	  24.094682	   0.000000; % COW
	2	 0.0	 0.0	 3	   0.000000	  24.965438	   0.000000; % NG
	2	 0.0	 0.0	 3	   0.000000	  23.765406	   0.000000; % NG
	2	 0.0	 0.0	 3	   0.000000	  30.752977	   0.000000; % NG
	2	 0.0	 0.0	 3	   0.000000	  22.474015	   0.000000; % NG
	2	 0.0	 0.0	 3	   0.000000	  34.978644	   0.000000; % COW
	2	 0.0	 0.0	 3	   0.000000	  30.995415	   0.000000; % NG
	2	 0.0	 0.0	 3	   0.000000	  18.020307	   0.000000; % NG
	2	 0.0	 0.0	 3	   0.000000	  22.902755	   0.000000; % NG
	2	 0.0	 0.0	 3	   0.000000	  28.059178	   0.000000; % NG
	2	 0.0	 0.0	 3	   0.000000	  31.565151	   0.000000; % NG
	2	 0.0	 0.0	 3	   0.000000	  23.865040	   0.000000; % COW
	2	 0.0	 0.0	 3	   0.000000	  19.680050	   0.000000; % COW
	2	 0.0	 0.0	 3	   0.000000	  26.499589	   0.000000; % NG
	2	 0.0	 0.0	 3	   0.000000	  28.385891	   0.000000; % NG
	2	 0.0	 0.0	 3	   0.000000	  39.235310	   0.000000; % NG
	2	 0.0	 0.0	 3	   0.000000	  31.599182	   0.000000; % NG
	2	 0.0	 0.0	 3	   0.000000	  30.647840	   0.000000; % COW
	2	 0.0	 0.0	 3	   0.000000	  38.311440	   0.000000; % NG
	2	 0.0	 0.0	 3	   0.000000	   7.517541	   0.000000; % COW
	2	 0.0	 0.0	 3	   0.000000	  14.951813	   0.000000; % NG
	2	 0.0	 0.0	 3	   0.000000	  24.810462	   0.000000; % NG
	2	 0.0	 0.0	 3	   0.000000	  79.708144	   0.000000; % COW
	2	 0.0	 0.0	 3	   0.000000	  23.802999	   0.000000; % NG
	2	 0.0	 0.0	 3	   0.000000	  34.702382	   0.000000; % NG
	2	 0.0	 0.0	 3	   0.000000	  38.611659	   0.000000; % NG
	2	 0.0	 0.0	 3	   0.000000	   7.619883	   0.000000; % NUC
	2	 0.0	 0.0	 3	   0.000000	  42.195400	   0.000000; % SYNC
	2	 0.0	 0.0	 3	   0.000000	   7.253371	   0.000000; % COW
	2	 0.0	 0.0	 3	   0.000000	  37.314915	   0.000000; % NG
	2	 0.0	 0.0	 3	   0.000000	  31.383243	   0.000000; % NG
	2	 0.0	 0.0	 3	   0.000000	  22.446061	   0.000000; % NG
	2	 0.0	 0.0	 3	   0.000000	  27.981934	   0.000000; % NG
	2	 0.0	 0.0	 3	   0.000000	 100.586864	   0.000000; % COW
	2	 0.0	 0.0	 3	   0.000000	  33.204589	   0.000000; % NG
	2	 0.0	 0.0	 3	   0.000000	   7.122779	   0.000000; % COW
	2	 0.0	 0.0	 3	   0.000000	  18.666900	   0.000000; % COW
	2	 0.0	 0.0	 3	   0.000000	   7.550981	   0.000000; % NG
	2	 0.0	 0.0	 3	   0.000000	  35.604133	   0.000000; % COW
	2	 0.0	 0.0	 3	   0.000000	  19.804309	   0.000000; % NG
	2	 0.0	 0.0	 3	   0.000000	  26.144799	   0.000000; % NG
	2	 0.0	 0.0	 3	   0.000000	  44.147810	   0.000000; % NG
	2	 0.0	 0.0	 3	   0.000000	  35.562693	   0.000000; % SYNC
	2	 0.0	 0.0	 3	   0.000000	  35.807424	   0.000000; % NG
	2	 0.0	 0.0	 3	   0.000000	  39.446996	   0.000000; % NG
	2	 0.0	 0.0	 3	   0.000000	  18.538670	   0.000000; % COW
	2	 0.0	 0.0	 3	   0.000000	  30.909880	   0.000000; % NG
	2	 0.0	 0.0	 3	   0.000000	  30.544167	   0.000000; % PEL
	2	 0.0	 0.0	 3	   0.000000	  35.965332	   0.000000; % NG
	2	 0.0	 0.0	 3	   0.000000	   7.051011	   0.000000; % NUC
	2	 0.0	 0.0	 3	   0.000000	  42.356822	   0.000000; % PEL
	2	 0.0	 0.0	 3	   0.000000	  27.296003	   0.000000; % NG
	2	 0.0	 0.0	 3	   0.000000	  30.938094	   0.000000; % COW
	2	 0.0	 0.0	 3	   0.000000	  28.931033	   0.000000; % COW
	2	 0.0	 0.0	 3	   0.000000	  22.588806	   0.000000; % NG
	2	 0.0	 0.0	 3	   0.000000	  37.302716	   0.000000; % NG
	2	 0.0	 0.0	 3	   0.000000	  37.977313	   0.000000; % NG
	2	 0.0	 0.0	 3	   0.000000	   4.345048	   0.000000; % NG
	2	 0.0	 0.0	 3	   0.000000	  22.462959	   0.000000; % SYNC
	2	 0.0	 0.0	 3	   0.000000	  19.814769	   0.000000; % NG
	2	 0.0	 0.0	 3	   0.000000	   8.016700	   0.000000; % COW
	2	 0.0	 0.0	 3	   0.000000	  20.456068	   0.000000; % NG
	2	 0.0	 0.0	 3	   0.000000	  44.670249	   0.000000; % COW
	2	 0.0	 0.0	 3	   0.000000	  43.366752	   0.000000; % NG
	2	 0.0	 0.0	 3	   0.000000	  36.105171	   0.000000; % NG
	2	 0.0	 0.0	 3	   0.000000	  25.107671	   0.000000; % NG
	2	 0.0	 0.0	 3	   0.000000	  37.943609	   0.000000; % NG
	2	 0.0	 0.0	 3	   0.000000	  33.086316	   0.000000; % NG
	2	 0.0	 0.0	 3	   0.000000	  36.303918	   0.000000; % NG
	2	 0.0	 0.0	 3	   0.000000	  29.260622	   0.000000; % NG
	2	 0.0	 0.0	 3	   0.000000	  98.992318	   0.000000; % NG
	2	 0.0	 0.0	 3	   0.000000	  27.405063	   0.000000; % NG
	2	 0.0	 0.0	 3	   0.000000	  17.378434	   0.000000; % NG
	2	 0.0	 0.0	 3	   0.000000	  34.198047	   0.000000; % COW
	2	 0.0	 0.0	 3	   0.000000	  36.694475	   0.000000; % NUC
	2	 0.0	 0.0	 3	   0.000000	  37.735549	   0.000000; % NG
	2	 0.0	 0.0	 3	   0.000000	   8.912924	   0.000000; % COW
	2	 0.0	 0.0	 3	   0.000000	  38.250898	   0.000000; % COW
	2	 0.0	 0.0	 3	   0.000000	  14.979523	   0.000000; % PEL
	2	 0.0	 0.0	 3	   0.000000	  28.538110	   0.000000; % COW
	2	 0.0	 0.0	 3	   0.000000	  39.424853	   0.000000; % SYNC
	2	 0.0	 0.0	 3	   0.000000	  39.296805	   0.000000; % NG
	2	 0.0	 0.0	 3	   0.000000	  14.861628	   0.000000; % COW
	2	 0.0	 0.0	 3	   0.000000	  29.670276	   0.000000; % NG
	2	 0.0	 0.0	 3	   0.000000	  33.798273	   0.000000; % COW
	2	 0.0	 0.0	 3	   0.000000	  28.336670	   0.000000; % NG
	2	 0.0	 0.0	 3	   0.000000	  18.404323	   0.000000; % COW
	2	 0.0	 0.0	 3	   0.000000	  41.060039	   0.000000; % NG
	2	 0.0	 0.0	 3	   0.000000	  32.080860	   0.000000; % NG
	2	 0.0	 0.0	 3	   0.000000	  33.555466	   0.000000; % NG
	2	 0.0	 0.0	 3	   0.000000	  13.210681	   0.000000; % NG
	2	 0.0	 0.0	 3	   0.000000	  32.184103	   0.000000; % NG
	2	 0.0	 0.0	 3	   0.000000	  16.825774	   0.000000; % COW
	2	 0.0	 0.0	 3	   0.000000	  30.459416	   0.000000; % COW
	2	 0.0	 0.0	 3	   0.000000	  31.825995	   0.000000; % COW
	2	 0.0	 0.0	 3	   0.000000	  25.704435	   0.000000; % COW
	2	 0.0	 0.0	 3	   0.000000	 113.881521	   0.000000; % NG
	2	 0.0	 0.0	 3	   0.000000	  48.679477	   0.000000; % NG
	2	 0.0	 0.0	 3	   0.000000	  37.090734	   0.000000; % COW
	2	 0.0	 0.0	 3	   0.000000	  44.629615	   0.000000; % NG
	2	 0.0	 0.0	 3	   0.000000	   4.688000	   0.000000; % NG
	2	 0.0	 0.0	 3	   0.000000	   7.924707	   0.000000; % COW
	2	 0.0	 0.0	 3	   0.000000	  15.196866	   0.000000; % NG
	2	 0.0	 0.0	 3	   0.000000	  31.536394	   0.000000; % NG
	2	 0.0	 0.0	 3	   0.000000	  41.051660	   0.000000; % NG
	2	 0.0	 0.0	 3	   0.000000	  36.290422	   0.000000; % NG
	2	 0.0	 0.0	 3	   0.000000	  16.038621	   0.000000; % NG
	2	 0.0	 0.0	 3	   0.000000	  32.583295	   0.000000; % NG
	2	 0.0	 0.0	 3	   0.000000	  18.644095	   0.000000; % NG
	2	 0.0	 0.0	 3	   0.000000	  25.524756	   0.000000; % NG
	2	 0.0	 0.0	 3	   0.000000	  36.090071	   0.000000; % NG
	2	 0.0	 0.0	 3	   0.000000	  43.804954	   0.000000; % COW
	2	 0.0	 0.0	 3	   0.000000	  26.393553	   0.000000; % NG
	2	 0.0	 0.0	 3	   0.000000	  47.182687	   0.000000; % NG
	2	 0.0	 0.0	 3	   0.000000	  14.350508	   0.000000; % NUC
	2	 0.0	 0.0	 3	   0.000000	  14.275729	   0.000000; % NG
	2	 0.0	 0.0	 3	   0.000000	  24.479866	   0.000000; % NG
	2	 0.0	 0.0	 3	   0.000000	 114.612148	   0.000000; % NG
	2	 0.0	 0.0	 3	   0.000000	  32.065876	   0.000000; % NG
	2	 0.0	 0.0	 3	   0.000000	  29.385085	   0.000000; % PEL
	2	 0.0	 0.0	 3	   0.000000	  36.659346	   0.000000; % SYNC
	2	 0.0	 0.0	 3	   0.000000	   4.602100	   0.000000; % COW
	2	 0.0	 0.0	 3	   0.000000	  58.771001	   0.000000; % NG
	2	 0.0	 0.0	 3	   0.000000	  15.431582	   0.000000; % NG
...
];

%% branch data
%	fbus	tbus	r	x	b	rateA	rateB	rateC	ratio	angle	status	angmin	angmax
mpc.branch = [
	7351	 5441	 0.00018	 0.000781	 0.0	 39412.0	 39412.0	 39412.0	 0.0	 0.0	 1	 -30.0	 30.0;
	4314	 7571	 0.002961	 0.01669	 0.0	 319.0	 1864.0	 1864.0	 0.0	 0.0	 1	 -30.0	 30.0;
	5803	 3916	 0.00056	 0.00432	 0.0	 7252.0	 7252.0	 7252.0	 0.0	 0.0	 1	 -30.0	 30.0;
	6757	 6036	 0.0002	 0.00246	 0.0	 657.0	 12799.0	 12799.0	 0.0	 0.0	 1	 -30.0	 30.0;
	6757	 6921	 0.0003	 0.00377	 0.0	 1315.0	 8353.0	 8353.0	 0.0	 0.0	 1	 -30.0	 30.0;
	5019	 9112	 0.00014	 0.00057	 0.0	 53817.0	 53817.0	 53817.0	 0.0	 0.0	 1	 -30.0	 30.0;
	2930	 9112	 0.00013	 0.000729	 0.0	 42657.0	 42657.0	 42657.0	 0.0	 0.0	 1	 -30.0	 30.0;
	1436	 9112	 0.00012	 0.000581	 0.0	 53244.0	 53244.0	 53244.0	 0.0	 0.0	 1	 -30.0	 30.0;
	1851	 9112	 0.00011	 0.00064	 0.0	 48642.0	 48642.0	 48642.0	 0.0	 0.0	 1	 -30.0	 30.0;
	8331	 9112	 0.00019	 0.00056	 0.0	 53416.0	 53416.0	 53416.0	 0.0	 0.0	 1	 -30.0	 30.0;
	6220	 8791	 0.00062	 0.004909	 0.0	 529.0	 6384.0	 6384.0	 0.0	 0.0	 1	 -30.0	 30.0;
	9203	 7842	 7e-05	 0.00076	 0.0	 887.0	 41388.0	 41388.0	 0.0	 0.0	 1	 -30.0	 30.0;
	9203	 8997	 0.00066	 0.00622	 0.0	 1611.0	 5051.0	 5051.0	 0.0	 0.0	 1	 -30.0	 30.0;
	9203	 2129	 0.00054	 0.00752	 0.0	 4190.0	 4190.0	 4190.0	 0.0	 0.0	 1	 -30.0	 30.0;
	9203	 29	 0.00105	 0.00877	 0.0	 1315.0	 3577.0	 3577.0	 0.0	 0.0	 1	 -30.0	 30.0;
	118	 8903	 8e-05	 0.00091	 0.0	 657.0	 34578.0	 34578.0	 0.0	 0.0	 1	 -30.0	 30.0;
	118	 4598	 0.00056	 0.00719	 0.0	 953.0	 4380.0	 4380.0	 0.0	 0.0	 1	 -30.0	 30.0;
	2426	 5533	 0.000531	 0.002039	 0.0	 319.0	 14992.0	 14992.0	 0.0	 0.0	 1	 -30.0	 30.0;
	2426	 4831	 0.008659	 0.03769	 0.0	 300.0	 817.0	 817.0	 0.0	 0.0	 1	 -30.0	 30.0;
	2426	 8961	 0.003849	 0.021099	 0.0	 1473.0	 1473.0	 1473.0	 0.0	 0.0	 1	 -30.0	 30.0;
	2426	 8522	 0.00688	 0.035969	 0.0	 300.0	 863.0	 863.0	 0.0	 0.0	 1	 -30.0	 30.0;
	2426	 6888	 0.006729	 0.03713	 0.0	 838.0	 838.0	 838.0	 0.0	 0.0	 1	 -30.0	 30.0;
	2426	 3401	 0.00111	 0.006651	 0.0	 414.0	 4685.0	 4685.0	 0.0	 0.0	 1	 -30.0	 30.0;
	2426	 641	 0.0023	 0.008909	 0.0	 3433.0	 3433.0	 3433.0	 0.0	 0.0	 1	 -30.0	 30.0;
	2426	 2600	 0.000841	 0.00313	 0.0	 9747.0	 9747.0	 9747.0	 0.0	 0.0	 1	 -30.0	 30.0;
	2426	 5351	 0.003521	 0.017479	 0.0	 300.0	 1772.0	 1772.0	 0.0	 0.0	 1	 -30.0	 30.0;
	3051	 718	 3.9e-05	 0.00025	 0.0	 510.0	 124840.0	 124840.0	 0.0	 0.0	 1	 -30.0	 30.0;
	3036	 2327	 0.000159	 0.000729	 0.0	 357.0	 42335.0	 42335.0	 0.0	 0.0	 1	 -30.0	 30.0;
	8651	 7473	 0.005281	 0.032099	 0.0	 395.0	 972.0	 972.0	 0.0	 0.0	 1	 -30.0	 30.0;
	8651	 7473	 0.005651	 0.029419	 0.0	 376.0	 1055.0	 1055.0	 0.0	 0.0	 1	 -30.0	 30.0;
	903	 3654	 0.000271	 0.00036	 0.0	 70101.0	 70101.0	 70101.0	 0.0	 0.0	 1	 -30.0	 30.0;
	8732	 7050	 0.00044	 0.00143	 0.0	 472.0	 21113.0	 21113.0	 0.0	 0.0	 1	 -30.0	 30.0;
	8732	 3912	 0.000159	 0.00074	 0.0	 453.0	 41734.0	 41734.0	 0.0	 0.0	 1	 -30.0	 30.0;
	2273	 1973	 0.00019	 0.000591	 0.0	 338.0	 50883.0	 50883.0	 0.0	 0.0	 1	 -30.0	 30.0;
	5131	 2928	 0.00019	 0.00087	 0.0	 35472.0	 35472.0	 35472.0	 0.0	 0.0	 1	 -30.0	 30.0;
	6629	 4918	 0.002591	 0.013659	 0.0	 319.0	 2273.0	 2273.0	 0.0	 0.0	 1	 -30.0	 30.0;
	6629	 7309	 0.00305	 0.01168	 0.0	 2617.0	 2617.0	 2617.0	 0.0	 0.0	 1	 -30.0	 30.0;
	413	 1102	 0.000159	 0.000599	 0.0	 433.0	 50969.0	 50969.0	 0.0	 0.0	 1	 -30.0	 30.0;
	413	 1102	 0.000159	 0.00062	 0.0	 395.0	 49351.0	 49351.0	 0.0	 0.0	 1	 -30.0	 30.0;
	3248	 4918	 0.00101	 0.004229	 0.0	 472.0	 7265.0	 7265.0	 0.0	 0.0	 1	 -30.0	 30.0;
	3248	 4281	 0.00319	 0.018651	 0.0	 453.0	 1670.0	 1670.0	 0.0	 0.0	 1	 -30.0	 30.0;
	3248	 7309	 0.000729	 0.00337	 0.0	 9162.0	 9162.0	 9162.0	 0.0	 0.0	 1	 -30.0	 30.0;
	1146	 1187	 0.002961	 0.012831	 0.0	 281.0	 2399.0	 2399.0	 0.0	 0.0	 1	 -30.0	 30.0;
	1146	 7945	 0.000591	 0.00339	 0.0	 9180.0	 9180.0	 9180.0	 0.0	 0.0	 1	 -30.0	 30.0;
	8900	 2421	 0.00024	 0.001219	 0.0	 25425.0	 25425.0	 25425.0	 0.0	 0.0	 1	 -30.0	 30.0;
	6071	 2972	 0.006219	 0.036341	 0.0	 376.0	 857.0	 857.0	 0.0	 0.0	 1	 -30.0	 30.0;
	6071	 6031	 0.001841	 0.01193	 0.0	 472.0	 2617.0	 2617.0	 0.0	 0.0	 1	 -30.0	 30.0;
	3293	 7264	 0.001409	 0.01113	 0.0	 414.0	 2816.0	 2816.0	 0.0	 0.0	 1	 -30.0	 30.0;
	3293	 283	 0.00151	 0.00768	 0.0	 376.0	 4036.0	 4036.0	 0.0	 0.0	 1	 -30.0	 30.0;
	3293	 3069	 0.00599	 0.03313	 0.0	 395.0	 939.0	 939.0	 0.0	 0.0	 1	 -30.0	 30.0;
	3293	 3390	 0.001771	 0.010151	 0.0	 357.0	 3066.0	 3066.0	 0.0	 0.0	 1	 -30.0	 30.0;
	4689	 4936	 0.00074	 0.00311	 0.0	 9881.0	 9881.0	 9881.0	 0.0	 0.0	 1	 -30.0	 30.0;
	4689	 4936	 0.000729	 0.003159	 0.0	 9744.0	 9744.0	 9744.0	 0.0	 0.0	 1	 -30.0	 30.0;
	3218	 7809	 0.005271	 0.01906	 0.0	 281.0	 1598.0	 1598.0	 0.0	 0.0	 1	 -30.0	 30.0;
	3218	 5455	 0.00906	 0.053151	 0.0	 319.0	 586.0	 586.0	 0.0	 0.0	 1	 -30.0	 30.0;
	3218	 1857	 0.00405	 0.0153	 0.0	 1996.0	 1996.0	 1996.0	 0.0	 0.0	 1	 -30.0	 30.0;
	6806	 5410	 0.00055	 0.003961	 0.0	 395.0	 7899.0	 7899.0	 0.0	 0.0	 1	 -30.0	 30.0;
	6806	 5410	 0.00055	 0.003729	 0.0	 338.0	 8381.0	 8381.0	 0.0	 0.0	 1	 -30.0	 30.0;
	6806	 1609	 0.00107	 0.007789	 0.0	 414.0	 4018.0	 4018.0	 0.0	 0.0	 1	 -30.0	 30.0;
	6806	 1609	 0.00112	 0.00775	 0.0	 472.0	 4034.0	 4034.0	 0.0	 0.0	 1	 -30.0	 30.0;
	6806	 1609	 0.001031	 0.00775	 0.0	 4041.0	 4041.0	 4041.0	 0.0	 0.0	 1	 -30.0	 30.0;
	6806	 2438	 0.00062	 0.003219	 0.0	 9636.0	 9636.0	 9636.0	 0.0	 0.0	 1	 -30.0	 30.0;
	6806	 954	 0.00068	 0.002659	 0.0	 414.0	 11510.0	 11510.0	 0.0	 0.0	 1	 -30.0	 30.0;
	9140	 502	 0.00193	 0.012479	 0.0	 491.0	 2502.0	 2502.0	 0.0	 0.0	 1	 -30.0	 30.0;
	9140	 3013	 0.001159	 0.007229	 0.0	 4315.0	 4315.0	 4315.0	 0.0	 0.0	 1	 -30.0	 30.0;
	9140	 2949	 0.00137	 0.008729	 0.0	 395.0	 3575.0	 3575.0	 0.0	 0.0	 1	 -30.0	 30.0;
	9140	 2949	 0.001401	 0.00855	 0.0	 433.0	 3646.0	 3646.0	 0.0	 0.0	 1	 -30.0	 30.0;
	9140	 2949	 0.001331	 0.008521	 0.0	 433.0	 3663.0	 3663.0	 0.0	 0.0	 1	 -30.0	 30.0;
	7070	 2208	 0.00031	 0.00081	 0.0	 281.0	 36421.0	 36421.0	 0.0	 0.0	 1	 -30.0	 30.0;
	7070	 8060	 0.000341	 0.00119	 0.0	 281.0	 25518.0	 25518.0	 0.0	 0.0	 1	 -30.0	 30.0;
	7070	 4484	 0.00031	 0.001281	 0.0	 376.0	 23967.0	 23967.0	 0.0	 0.0	 1	 -30.0	 30.0;
	7070	 4239	 0.00094	 0.0035	 0.0	 433.0	 8717.0	 8717.0	 0.0	 0.0	 1	 -30.0	 30.0;
	8535	 7047	 7e-05	 0.000651	 0.0	 48244.0	 48244.0	 48244.0	 0.0	 0.0	 1	 -30.0	 30.0;
	5477	 3657	 0.00019	 0.00124	 0.0	 491.0	 25180.0	 25180.0	 0.0	 0.0	 1	 -30.0	 30.0;
	5477	 2928	 0.000331	 0.002539	 0.0	 433.0	 12337.0	 12337.0	 0.0	 0.0	 1	 -30.0	 30.0;
	3145	 2918	 0.0016	 0.02113	 0.0	 1491.0	 1491.0	 1491.0	 0.0	 0.0	 1	 -30.0	 30.0;
	7770	 5317	 0.000909	 0.004711	 0.0	 357.0	 6584.0	 6584.0	 0.0	 0.0	 1	 -30.0	 30.0;
	7770	 5317	 0.00088	 0.004969	 0.0	 319.0	 6260.0	 6260.0	 0.0	 0.0	 1	 -30.0	 30.0;
	3	 8676	 0.001841	 0.0088	 0.0	 3514.0	 3514.0	 3514.0	 0.0	 0.0	 1	 -30.0	 30.0;
	3	 8189	 0.01013	 0.04238	 0.0	 395.0	 725.0	 725.0	 0.0	 0.0	 1	 -30.0	 30.0;
	7267	 2938	 0.00059	 0.00802	 0.0	 723.0	 3928.0	 3928.0	 0.0	 0.0	 1	 -30.0	 30.0;
	7267	 2938	 0.00054	 0.0079	 0.0	 657.0	 3990.0	 3990.0	 0.0	 0.0	 1	 -30.0	 30.0;
	7267	 3918	 0.00171	 0.02128	 0.0	 986.0	 1480.0	 1480.0	 0.0	 0.0	 1	 -30.0	 30.0;
	7267	 3918	 0.00174	 0.02084	 0.0	 854.0	 1511.0	 1511.0	 0.0	 0.0	 1	 -30.0	 30.0;
	7267	 6581	 0.00086	 0.01433	 0.0	 1151.0	 2201.0	 2201.0	 0.0	 0.0	 1	 -30.0	 30.0;
	7267	 6581	 0.00087	 0.01404	 0.0	 723.0	 2246.0	 2246.0	 0.0	 0.0	 1	 -30.0	 30.0;
	7267	 3830	 0.00126	 0.01447	 0.0	 1118.0	 2175.0	 2175.0	 0.0	 0.0	 1	 -30.0	 30.0;
	7267	 5648	 0.00122	 0.01509	 0.0	 1052.0	 2087.0	 2087.0	 0.0	 0.0	 1	 -30.0	 30.0;
	7267	 5648	 0.00154	 0.019	 0.0	 1282.0	 1658.0	 1658.0	 0.0	 0.0	 1	 -30.0	 30.0;
	4918	 4907	 0.00474	 0.03564	 0.0	 472.0	 879.0	 879.0	 0.0	 0.0	 1	 -30.0	 30.0;
	4918	 5957	 0.006	 0.047849	 0.0	 433.0	 656.0	 656.0	 0.0	 0.0	 1	 -30.0	 30.0;
	4918	 5233	 0.008039	 0.03375	 0.0	 281.0	 911.0	 911.0	 0.0	 0.0	 1	 -30.0	 30.0;
	6854	 7309	 2.1e-05	 0.000211	 0.0	 510.0	 148968.0	 148968.0	 0.0	 0.0	 1	 -30.0	 30.0;
	8311	 3680	 0.00045	 0.002341	 0.0	 13251.0	 13251.0	 13251.0	 0.0	 0.0	 1	 -30.0	 30.0;
	2770	 8804	 0.000669	 0.004281	 0.0	 433.0	 7291.0	 7291.0	 0.0	 0.0	 1	 -30.0	 30.0;
	9241	 8804	 0.00068	 0.00419	 0.0	 7442.0	 7442.0	 7442.0	 0.0	 0.0	 1	 -30.0	 30.0;
	3083	 7124	 0.000729	 0.00431	 0.0	 510.0	 7227.0	 7227.0	 0.0	 0.0	 1	 -30.0	 30.0;
	3083	 7124	 0.000591	 0.004651	 0.0	 453.0	 6738.0	 6738.0	 0.0	 0.0	 1	 -30.0	 30.0;
	3083	 8873	 0.00099	 0.005081	 0.0	 338.0	 6103.0	 6103.0	 0.0	 0.0	 1	 -30.0	 30.0;
	1566	 7582	 0.00212	 0.013031	 0.0	 2393.0	 2393.0	 2393.0	 0.0	 0.0	 1	 -30.0	 30.0;
	1566	 3541	 0.002159	 0.01275	 0.0	 2443.0	 2443.0	 2443.0	 0.0	 0.0	 1	 -30.0	 30.0;
	8683	 3698	 0.00025	 0.00095	 0.0	 32156.0	 32156.0	 32156.0	 0.0	 0.0	 1	 -30.0	 30.0;
	8683	 3698	 0.000271	 0.00089	 0.0	 33953.0	 33953.0	 33953.0	 0.0	 0.0	 1	 -30.0	 30.0;
	8683	 2801	 0.001961	 0.012409	 0.0	 281.0	 2515.0	 2515.0	 0.0	 0.0	 1	 -30.0	 30.0;
	8683	 8328	 0.00044	 0.00207	 0.0	 472.0	 14927.0	 14927.0	 0.0	 0.0	 1	 -30.0	 30.0;
	8683	 8511	 0.000469	 0.00143	 0.0	 529.0	 20990.0	 20990.0	 0.0	 0.0	 1	 -30.0	 30.0;
	8683	 6570	 0.001271	 0.01406	 0.0	 529.0	 2238.0	 2238.0	 0.0	 0.0	 1	 -30.0	 30.0;
	8683	 6570	 0.00124	 0.013021	 0.0	 529.0	 2415.0	 2415.0	 0.0	 0.0	 1	 -30.0	 30.0;
	8683	 8975	 0.000409	 0.00239	 0.0	 13028.0	 13028.0	 13028.0	 0.0	 0.0	 1	 -30.0	 30.0;
	8683	 216	 0.00094	 0.005	 0.0	 338.0	 6209.0	 6209.0	 0.0	 0.0	 1	 -30.0	 30.0;
	8683	 2961	 0.000219	 0.0007	 0.0	 529.0	 43067.0	 43067.0	 0.0	 0.0	 1	 -30.0	 30.0;
	8683	 6773	 6e-05	 0.00025	 0.0	 122861.0	 122861.0	 122861.0	 0.0	 0.0	 1	 -30.0	 30.0;
	8683	 5278	 5e-05	 0.000229	 0.0	 134762.0	 134762.0	 134762.0	 0.0	 0.0	 1	 -30.0	 30.0;
	3768	 2751	 0.00019	 0.000909	 0.0	 34015.0	 34015.0	 34015.0	 0.0	 0.0	 1	 -30.0	 30.0;
	2276	 5546	 0.001711	 0.00782	 0.0	 3946.0	 3946.0	 3946.0	 0.0	 0.0	 1	 -30.0	 30.0;
	2276	 6816	 0.002651	 0.01176	 0.0	 319.0	 2621.0	 2621.0	 0.0	 0.0	 1	 -30.0	 30.0;
	7766	 444	 0.001409	 0.010599	 0.0	 2955.0	 2955.0	 2955.0	 0.0	 0.0	 1	 -30.0	 30.0;
	7766	 5334	 0.001419	 0.010219	 0.0	 3062.0	 3062.0	 3062.0	 0.0	 0.0	 1	 -30.0	 30.0;
	839	 3918	 0.00013	 0.00212	 0.0	 756.0	 14872.0	 14872.0	 0.0	 0.0	 1	 -30.0	 30.0;
	839	 809	 0.00026	 0.00313	 0.0	 1282.0	 10058.0	 10058.0	 0.0	 0.0	 1	 -30.0	 30.0;
	4506	 2286	 0.0047	 0.0318	 0.0	 376.0	 983.0	 983.0	 0.0	 0.0	 1	 -30.0	 30.0;
	4506	 6802	 0.00136	 0.00768	 0.0	 338.0	 4050.0	 4050.0	 0.0	 0.0	 1	 -30.0	 30.0;
	4506	 3520	 0.005669	 0.027789	 0.0	 300.0	 1114.0	 1114.0	 0.0	 0.0	 1	 -30.0	 30.0;
	7273	 6271	 0.004409	 0.033091	 0.0	 281.0	 947.0	 947.0	 0.0	 0.0	 1	 -30.0	 30.0;
	7273	 1435	 0.01056	 0.044469	 0.0	 692.0	 692.0	 692.0	 0.0	 0.0	 1	 -30.0	 30.0;
	7273	 7148	 0.01963	 0.07736	 0.0	 338.0	 396.0	 396.0	 0.0	 0.0	 1	 -30.0	 30.0;
	7273	 7437	 0.01157	 0.04694	 0.0	 357.0	 654.0	 654.0	 0.0	 0.0	 1	 -30.0	 30.0;
	6104	 871	 0.000479	 0.00255	 0.0	 357.0	 12175.0	 12175.0	 0.0	 0.0	 1	 -30.0	 30.0;
	7580	 871	 0.000469	 0.00236	 0.0	 13128.0	 13128.0	 13128.0	 0.0	 0.0	 1	 -30.0	 30.0;
	1188	 1539	 0.01237	 0.067039	 0.0	 281.0	 464.0	 464.0	 0.0	 0.0	 1	 -30.0	 30.0;
	1188	 8515	 0.0132	 0.056229	 0.0	 281.0	 547.0	 547.0	 0.0	 0.0	 1	 -30.0	 30.0;
	3971	 4084	 0.00026	 0.001711	 0.0	 18252.0	 18252.0	 18252.0	 0.0	 0.0	 1	 -30.0	 30.0;
	3971	 4084	 0.000271	 0.001669	 0.0	 18682.0	 18682.0	 18682.0	 0.0	 0.0	 1	 -30.0	 30.0;
	6845	 5340	 0.000211	 0.000401	 0.0	 69711.0	 69711.0	 69711.0	 0.0	 0.0	 1	 -30.0	 30.0;
	8294	 5814	 0.00105	 0.005159	 0.0	 6000.0	 6000.0	 6000.0	 0.0	 0.0	 1	 -30.0	 30.0;
	7115	 6807	 0.00212	 0.00931	 0.0	 319.0	 3309.0	 3309.0	 0.0	 0.0	 1	 -30.0	 30.0;
	619	 6791	 0.000151	 0.00068	 0.0	 45348.0	 45348.0	 45348.0	 0.0	 0.0	 1	 -30.0	 30.0;
	5418	 4908	 0.00019	 0.00082	 0.0	 37527.0	 37527.0	 37527.0	 0.0	 0.0	 1	 -30.0	 30.0;
	5120	 6816	 0.003219	 0.01405	 0.0	 300.0	 2192.0	 2192.0	 0.0	 0.0	 1	 -30.0	 30.0;
	6692	 9158	 0.007271	 0.033159	 0.0	 281.0	 931.0	 931.0	 0.0	 0.0	 1	 -30.0	 30.0;
	6692	 8035	 0.006659	 0.03132	 0.0	 300.0	 987.0	 987.0	 0.0	 0.0	 1	 -30.0	 30.0;
	3445	 2848	 0.00057	 0.00668	 0.0	 1480.0	 4712.0	 4712.0	 0.0	 0.0	 1	 -30.0	 30.0;
	3445	 7056	 0.00057	 0.00758	 0.0	 1414.0	 4156.0	 4156.0	 0.0	 0.0	 1	 -30.0	 30.0;
	3445	 7056	 0.00039	 0.00607	 0.0	 821.0	 5194.0	 5194.0	 0.0	 0.0	 1	 -30.0	 30.0;
	3445	 1642	 0.00155	 0.0179	 0.0	 1759.0	 1759.0	 1759.0	 0.0	 0.0	 1	 -30.0	 30.0;
	3445	 4594	 0.00036	 0.00485	 0.0	 1545.0	 6495.0	 6495.0	 0.0	 0.0	 1	 -30.0	 30.0;
	6114	 1692	 0.000581	 0.004229	 0.0	 338.0	 7400.0	 7400.0	 0.0	 0.0	 1	 -30.0	 30.0;
	6114	 8190	 0.00056	 0.00431	 0.0	 7268.0	 7268.0	 7268.0	 0.0	 0.0	 1	 -30.0	 30.0;
	6114	 5836	 0.003099	 0.020531	 0.0	 472.0	 1522.0	 1522.0	 0.0	 0.0	 1	 -30.0	 30.0;
	6114	 3191	 0.00118	 0.016919	 0.0	 510.0	 1863.0	 1863.0	 0.0	 0.0	 1	 -30.0	 30.0;
	6114	 5300	 0.00188	 0.01407	 0.0	 2226.0	 2226.0	 2226.0	 0.0	 0.0	 1	 -30.0	 30.0;
	6114	 4889	 0.00545	 0.04082	 0.0	 357.0	 768.0	 768.0	 0.0	 0.0	 1	 -30.0	 30.0;
	7264	 444	 0.00214	 0.01639	 0.0	 453.0	 1912.0	 1912.0	 0.0	 0.0	 1	 -30.0	 30.0;
	7264	 4747	 0.002479	 0.01549	 0.0	 2014.0	 2014.0	 2014.0	 0.0	 0.0	 1	 -30.0	 30.0;
	7982	 9011	 0.000159	 0.001229	 0.0	 472.0	 25490.0	 25490.0	 0.0	 0.0	 1	 -30.0	 30.0;
	7982	 6675	 0.00026	 0.00162	 0.0	 453.0	 19252.0	 19252.0	 0.0	 0.0	 1	 -30.0	 30.0;
	7982	 6909	 0.000159	 0.00113	 0.0	 376.0	 27681.0	 27681.0	 0.0	 0.0	 1	 -30.0	 30.0;
	7982	 8835	 0.000461	 0.003219	 0.0	 472.0	 9714.0	 9714.0	 0.0	 0.0	 1	 -30.0	 30.0;
	7982	 4186	 0.000159	 0.001229	 0.0	 25490.0	 25490.0	 25490.0	 0.0	 0.0	 1	 -30.0	 30.0;
	1604	 502	 0.000229	 0.00139	 0.0	 376.0	 22423.0	 22423.0	 0.0	 0.0	 1	 -30.0	 30.0;
	2842	 502	 0.0002	 0.00156	 0.0	 338.0	 20084.0	 20084.0	 0.0	 0.0	 1	 -30.0	 30.0;
	1354	 513	 0.00145	 0.00824	 0.0	 281.0	 3776.0	 3776.0	 0.0	 0.0	 1	 -30.0	 30.0;
	1354	 502	 0.00069	 0.005	 0.0	 491.0	 6259.0	 6259.0	 0.0	 0.0	 1	 -30.0	 30.0;
	891	 3697	 0.00036	 0.00455	 0.0	 1809.0	 6921.0	 6921.0	 0.0	 0.0	 1	 -30.0	 30.0;
	891	 3697	 0.00036	 0.00453	 0.0	 1776.0	 6952.0	 6952.0	 0.0	 0.0	 1	 -30.0	 30.0;
	8312	 7541	 0.00066	 0.00997	 0.0	 1348.0	 3162.0	 3162.0	 0.0	 0.0	 1	 -30.0	 30.0;
	8312	 7541	 0.00064	 0.01016	 0.0	 986.0	 3103.0	 3103.0	 0.0	 0.0	 1	 -30.0	 30.0;
	6306	 4826	 9.9e-05	 0.00044	 0.0	 529.0	 70039.0	 70039.0	 0.0	 0.0	 1	 -30.0	 30.0;
	4826	 4418	 6e-05	 0.000469	 0.0	 66806.0	 66806.0	 66806.0	 0.0	 0.0	 1	 -30.0	 30.0;
	4826	 1605	 3.9e-05	 0.000341	 0.0	 92032.0	 92032.0	 92032.0	 0.0	 0.0	 1	 -30.0	 30.0;
	4826	 6952	 0.002531	 0.01943	 0.0	 433.0	 1613.0	 1613.0	 0.0	 0.0	 1	 -30.0	 30.0;
	4826	 7124	 0.00945	 0.06418	 0.0	 414.0	 487.0	 487.0	 0.0	 0.0	 1	 -30.0	 30.0;
...